<?xml version="1.0" ?>
<routes xmlns:xsi="http://www.w3.org/2001/XMLSchema-instance" xsi:noNamespaceSchemaLocation="http://sumo.dlr.de/xsd/routes_file.xsd">
    <route id="r_0" edges="-417034218#1 -28463687#0 -417034180 -416901230#1 416901209#1 416901209#2 157782193#0 157782193#1 157782193#2"/>
    
    
    <route id="r_1" edges="-417034218#1 -28463687#0 -417034180 -416901230#1 -1418903639#0 -157782383 -517627277 -416901218#1"/>
    
    
    <route id="r_10" edges="-157782193#0 -416901209#2 -416901209#1 417034082#1 417034071 417034088#0"/>
    
    
    <route id="r_11" edges="-157782193#0 -416901209#2 -416901209#1 416901230#1 417034180 28463687#0 417034218#1"/>
    
    
    <route id="r_2" edges="-417034218#1 -28463687#0 -417034180 -416901230#1 417034082#1 417034071 417034088#0"/>
    
    
    <route id="r_3" edges="-417034088#0 -417034071 -417034082#1 416901230#1 417034180 28463687#0 417034218#1"/>
    
    
    <route id="r_4" edges="-417034088#0 -417034071 -417034082#1 416901209#1 416901209#2 157782193#0"/>
    
    
    <route id="r_5" edges="-417034088#0 -417034071 -417034082#1 -1418903639#0 -157782383 -517627277 -416901218#1"/>
    
    
    <route id="r_6" edges="416901218#1 517627277 157782383 1418903639#0 417034082#1 417034071 417034088#0"/>
    
    
    <route id="r_7" edges="416901218#1 517627277 157782383 1418903639#0 416901230#1 417034180 28463687#0 417034218#1"/>
    
    
    <route id="r_8" edges="416901218#1 517627277 157782383 1418903639#0 416901209#1 416901209#2 157782193#0 157782193#1 157782193#2"/>
    
    
    <route id="r_9" edges="-157782193#2 -157782193#1 -157782193#0 -416901209#2 -416901209#1 -1418903639#0 -157782383 -517627277 -416901218#1"/>
    

    <!-- <vType id="passenger" vClass="passenger" speedFactor="1.0" speedDev="0.1"
           lcStrategic="1.0" lcCooperative="1.0" lcSpeedGain="1.5"
           lcKeepRight="0.0" lcSublane="1.0" lcPushy="0.5"
           lcAssertive="1.0" lcImpatience="0.5"
           lcTimeToImpatience="5" latAlignment="compact"/> -->

    <vType id="car_conservative" vClass="passenger" length="4.5" width="1.8" height="1.5" guiShape="passenger/sedan" accel="2.6" decel="4.5" emergencyDecel="9.0" maxSpeed="33.3" minGap="3.2" color="1,1,1" carFollowModel="Krauss" tau="1.8" sigma="0.3" laneChangeModel="SL2015" lcStrategic="0.8" lcSpeedGain="0.3" lcCooperative="0.9" lcKeepRight="0.9" lcAssertive="0.3"/>
    <vType id="car_normal" vClass="passenger" length="4.5" width="1.8" height="1.5" guiShape="passenger/sedan" accel="2.6" decel="4.5" emergencyDecel="9.0" maxSpeed="33.3" minGap="2.5" color="1,1,1" carFollowModel="Krauss" tau="1.2" sigma="0.5" laneChangeModel="SL2015" lcStrategic="0.8" lcSpeedGain="0.6" lcCooperative="0.6" lcKeepRight="0.7" lcAssertive="0.5"/>
    <vType id="car_aggressive" vClass="passenger" length="4.5" width="1.8" height="1.5" guiShape="passenger/sedan" accel="2.6" decel="4.5" emergencyDecel="9.0" maxSpeed="33.3" minGap="1.8" color="1,1,1" carFollowModel="Krauss" tau="0.8" sigma="0.7" laneChangeModel="SL2015" lcStrategic="1.0" lcSpeedGain="1.0" lcCooperative="0.3" lcKeepRight="0.4" lcAssertive="0.9"/>
    <vType id="suv_conservative" vClass="passenger" length="4.9" width="1.95" height="1.75" guiShape="passenger/van" accel="2.3" decel="4.2" emergencyDecel="8.5" maxSpeed="31.3" minGap="3.0" color="0.5,0.5,0.5" carFollowModel="Krauss" tau="1.7" sigma="0.3" laneChangeModel="SL2015" lcStrategic="0.7" lcSpeedGain="0.4" lcCooperative="0.8" lcKeepRight="0.8" lcAssertive="0.4"/>
    <vType id="suv_normal" vClass="passenger" length="4.9" width="1.95" height="1.75" guiShape="passenger/van" accel="2.3" decel="4.2" emergencyDecel="8.5" maxSpeed="31.3" minGap="2.7" color="0.5,0.5,0.5" carFollowModel="Krauss" tau="1.3" sigma="0.5" laneChangeModel="SL2015" lcStrategic="0.7" lcSpeedGain="0.5" lcCooperative="0.5" lcKeepRight="0.6" lcAssertive="0.5"/>
    <vType id="suv_aggressive" vClass="passenger" length="4.9" width="1.95" height="1.75" guiShape="passenger/van" accel="2.3" decel="4.2" emergencyDecel="8.5" maxSpeed="31.3" minGap="2.0" color="0.5,0.5,0.5" carFollowModel="Krauss" tau="0.9" sigma="0.6" laneChangeModel="SL2015" lcStrategic="0.9" lcSpeedGain="0.9" lcCooperative="0.3" lcKeepRight="0.4" lcAssertive="0.8"/>
    <vType id="pickup_conservative" vClass="passenger" length="5.8" width="2.0" height="1.8" guiShape="delivery" accel="2.0" decel="4.0" emergencyDecel="8.0" maxSpeed="29.0" minGap="3.2" color="0.3,0.3,0.8" carFollowModel="Krauss" tau="1.6" sigma="0.4" laneChangeModel="SL2015" lcStrategic="0.6" lcSpeedGain="0.3" lcCooperative="0.7" lcKeepRight="0.8" lcAssertive="0.4"/>
    <vType id="pickup_normal" vClass="passenger" length="5.8" width="2.0" height="1.8" guiShape="delivery" accel="2.0" decel="4.0" emergencyDecel="8.0" maxSpeed="29.0" minGap="3.0" color="0.3,0.3,0.8" carFollowModel="Krauss" tau="1.3" sigma="0.5" laneChangeModel="SL2015" lcStrategic="0.6" lcSpeedGain="0.5" lcCooperative="0.5" lcKeepRight="0.6" lcAssertive="0.5"/>
    <vType id="pickup_aggressive" vClass="passenger" length="5.8" width="2.0" height="1.8" guiShape="delivery" accel="2.0" decel="4.0" emergencyDecel="8.0" maxSpeed="29.0" minGap="2.2" color="0.3,0.3,0.8" carFollowModel="Krauss" tau="1.0" sigma="0.6" laneChangeModel="SL2015" lcStrategic="0.8" lcSpeedGain="0.8" lcCooperative="0.3" lcKeepRight="0.4" lcAssertive="0.7"/>
    <vType id="truck_delivery" vClass="truck" length="8.5" width="2.4" height="3.0" guiShape="truck" accel="1.5" decel="3.5" emergencyDecel="7.0" maxSpeed="25.0" minGap="3.8" color="1,1,0" carFollowModel="Krauss" tau="2.0" sigma="0.3" laneChangeModel="SL2015" lcStrategic="0.9" lcSpeedGain="0.2" lcCooperative="0.9" lcKeepRight="0.9" lcAssertive="0.2"/>
    <vType id="semi_truck" vClass="truck" length="16.5" width="2.55" height="4.0" guiShape="truck/semitrailer" accel="1.0" decel="3.0" emergencyDecel="6.0" maxSpeed="22.0" minGap="4.5" color="0.8,0.4,0.1" carFollowModel="Krauss" tau="2.2" sigma="0.2" laneChangeModel="SL2015" lcStrategic="1.0" lcSpeedGain="0.1" lcCooperative="0.8" lcKeepRight="1.0" lcAssertive="0.1"/>
    <vType id="bus_transit" vClass="bus" length="12.0" width="2.55" height="3.4" guiShape="bus" accel="1.2" decel="3.2" emergencyDecel="6.5" maxSpeed="22.0" minGap="3.5" color="0,0.6,0.8" carFollowModel="Krauss" tau="2.0" sigma="0.2" laneChangeModel="SL2015" lcStrategic="0.8" lcSpeedGain="0.2" lcCooperative="0.9" lcKeepRight="0.7" lcAssertive="0.3"/>
    <vType id="bus_school" vClass="bus" length="10.5" width="2.4" height="3.3" guiShape="bus/trolley" accel="1.1" decel="3.0" emergencyDecel="6.0" maxSpeed="20.0" minGap="3.8" color="1,0.8,0" carFollowModel="Krauss" tau="2.2" sigma="0.1" laneChangeModel="SL2015" lcStrategic="0.7" lcSpeedGain="0.1" lcCooperative="0.95" lcKeepRight="0.8" lcAssertive="0.2"/>
    <vType id="motorcycle_normal" vClass="motorcycle" length="2.2" width="0.8" height="1.3" guiShape="motorcycle" accel="3.5" decel="6.0" emergencyDecel="10.0" maxSpeed="38.0" minGap="1.8" color="1,0,0" carFollowModel="Krauss" tau="0.9" sigma="0.6" laneChangeModel="SL2015" lcStrategic="1.0" lcSpeedGain="1.0" lcCooperative="0.4" lcKeepRight="0.3" lcAssertive="0.8"/>
    <!--  Vehicle type distribution  -->
    <vTypeDistribution id="realistic_traffic_mix" vTypes="car_conservative car_normal car_aggressive suv_conservative suv_normal suv_aggressive pickup_conservative pickup_normal pickup_aggressive truck_delivery semi_truck bus_transit bus_school motorcycle_normal" probabilities="0.15 0.20 0.10 0.10 0.13 0.07 0.04 0.06 0.02 0.03 0.02 0.03 0.02 0.03"/>

    <flow id="flow_ew_east_left" type="realistic_traffic_mix" begin="0" end="1800" vehsPerHour="50" route="r_0" departLane="best"/>
    <flow id="flow_ew_east_straight" type="realistic_traffic_mix" begin="0" end="1800" vehsPerHour="200" route="r_1" departLane="best"/>
    <flow id="flow_ew_east_right" type="realistic_traffic_mix" begin="0" end="1800" vehsPerHour="50" route="r_2" departLane="best"/>
    <flow id="flow_ew_west_left" type="realistic_traffic_mix" begin="0" end="1800" vehsPerHour="25" route="r_6" departLane="best"/>
    <flow id="flow_ew_west_straight" type="realistic_traffic_mix" begin="0" end="1800" vehsPerHour="200.00" route="r_7" departLane="best"/>
    <flow id="flow_ew_west_right" type="realistic_traffic_mix" begin="0" end="1800" vehsPerHour="25" route="r_8" departLane="best"/>
    <flow id="flow_ns_north_left" type="realistic_traffic_mix" begin="0" end="1800" vehsPerHour="3.00" route="r_3" departLane="best"/>
    <flow id="flow_ns_north_straight" type="realistic_traffic_mix" begin="0" end="1800" vehsPerHour="9.00" route="r_4" departLane="best"/>
    <flow id="flow_ns_north_right" type="realistic_traffic_mix" begin="0" end="1800" vehsPerHour="3.00" route="r_5" departLane="best"/>
    <flow id="flow_ns_south_left" type="realistic_traffic_mix" begin="0" end="1800" vehsPerHour="3.00" route="r_9" departLane="best"/>
    <flow id="flow_ns_south_straight" type="realistic_traffic_mix" begin="0" end="1800" vehsPerHour="9.00" route="r_10" departLane="best"/>
</routes>
