<?xml version="1.0" encoding="UTF-8"?>

<!-- generated on 2026-01-28 10:27:08.820464 by osmWebWizard.py v1_22_0+0002-63e50f52594
<configuration>
    <net-file value="C:\Users\print\Sumo\2026-01-28-10-26-47\osm.net.xml.gz"/>
    <output-trip-file value="C:\Users\print\Sumo\2026-01-28-10-26-47\osm.bus.trips.xml"/>
    <route-file value="C:\Users\print\Sumo\2026-01-28-10-26-47\osm.bus.rou.xml"/>
    <prefix value="bus"/>
    <trip-attributes value="departLane=&quot;best&quot;"/>
    <fringe-start-attributes value="departSpeed=&quot;max&quot;"/>
    <vehicle-class value="bus"/>
    <fringe-factor value="5"/>
    <vclass value="bus"/>
    <via-edge-types value="highway.motorway,highway.motorway_link,highway.trunk_link,highway.primary_link,highway.secondary_link,highway.tertiary_link"/>
    <min-distance value="600.0"/>
    <min-distance.fringe value="10.0"/>
    <remove-loops value="True"/>
    <validate value="True"/>
    <insertion-density value="2.0"/>
</configuration>
-->

<!-- generated on 2026-01-28 10:27:08 by Eclipse SUMO duarouter Version 1.22.0
<duarouterConfiguration xmlns:xsi="http://www.w3.org/2001/XMLSchema-instance" xsi:noNamespaceSchemaLocation="http://sumo.dlr.de/xsd/duarouterConfiguration.xsd">

    <input>
        <net-file value="C:\Users\print\Sumo\2026-01-28-10-26-47\osm.net.xml.gz"/>
        <route-files value="C:\Users\print\Sumo\2026-01-28-10-26-47\osm.bus.trips.xml"/>
    </input>

    <output>
        <output-file value="C:\Users\print\Sumo\2026-01-28-10-26-47\osm.bus.trips.xml.tmp"/>
        <alternatives-output value="NUL"/>
        <write-trips value="true"/>
    </output>

    <processing>
        <remove-loops value="true"/>
    </processing>

    <time>
        <begin value="0.0"/>
        <end value="3600.0"/>
    </time>

    <report>
        <no-warnings value="true"/>
        <ignore-errors value="true"/>
        <no-step-log value="true"/>
    </report>

</duarouterConfiguration>
-->

<routes xmlns:xsi="http://www.w3.org/2001/XMLSchema-instance" xsi:noNamespaceSchemaLocation="http://sumo.dlr.de/xsd/routes_file.xsd">
    <vType id="bus_bus" vClass="bus"/>
    <trip id="bus3" type="bus_bus" depart="1092.45" departLane="best" departSpeed="max" from="-157781953#2" to="360446682#0"/>
</routes>
