<?xml version="1.0" encoding="UTF-8"?>
<!-- Updated at 2026-02-14 18:57:43 -->
<additional xmlns:xsi="http://www.w3.org/2001/XMLSchema-instance" xsi:noNamespaceSchemaLocation="http://sumo.dlr.de/xsd/additional_file.xsd">
  <tlLogic id="cluster_1984576776_3478559735_3478559736_3537422682_#1more" type="actuated" programID="1418903639#0_1" offset="0">
    <phase duration="5.0" state="rrrrrrGGGrrrrrrrrrrrrrrrGGGrrrrrrrrrrrrr" />
    <phase duration="3.0" state="rrrrrryyyrrrrrrrrrrrrrrryyyrrrrrrrrrrrrr" />
    <phase duration="1.0" state="rrrrrrrrrrrrrrrrrrrrrrrrrrrrrrrrrrrrrrrr" />
    <phase duration="1.0" state="GGGGGGrrrrrrrrrrrrrrrrrrrrrrrrrrrrrrrrrG" />
    <phase duration="48.2" state="GGGGGGrrrrrrrrrrrrGGGGGGrrrrrrrrrrrrrGrG" />
    <phase duration="3.6" state="yyyyyyrrrrrrrrrrrryyyyyyrrrrrrrrrrrrryry" />
    <phase duration="2.0" state="rrrrrrrrrrrrrrrrrrrrrrrrrrrrrrrrrrrrrrrr" />
    <phase duration="5.0" state="rrrrrrrrrrrrrrrGGGrrrrrrrrrrrrrrrGGGrrrr" />
    <phase duration="3.0" state="rrrrrrrrrrrrrrryyyrrrrrrrrrrrrrrryyyrrrr" />
    <phase duration="1.0" state="rrrrrrrrrrrrrrrrrrrrrrrrrrrrrrrrrrrrrrrr" />
    <phase duration="22.0" state="rrrrrrrrrGGGGGGrrrrrrrrrrrrGGGGGGrrrGrGr" />
    <phase duration="3.2" state="rrrrrrrrryyyyyyrrrrrrrrrrrryyyyyyrrryryr" />
    <phase duration="2.0" state="rrrrrrrrrrrrrrrrrrrrrrrrrrrrrrrrrrrrrrrr" />
  </tlLogic>
  <tlLogic id="cluster_1984576776_3478559735_3478559736_3537422682_#1more" type="actuated" programID="1418903639#0_2" offset="0">
    <phase duration="5.0" state="rrrrrrGGGrrrrrrrrrrrrrrrGGGrrrrrrrrrrrrr" />
    <phase duration="3.0" state="rrrrrryyyrrrrrrrrrrrrrrryyyrrrrrrrrrrrrr" />
    <phase duration="1.0" state="rrrrrrrrrrrrrrrrrrrrrrrrrrrrrrrrrrrrrrrr" />
    <phase duration="1.0" state="GGGGGGrrrrrrrrrrrrrrrrrrrrrrrrrrrrrrrrrG" />
    <phase duration="48.2" state="GGGGGGrrrrrrrrrrrrGGGGGGrrrrrrrrrrrrrGrG" />
    <phase duration="3.6" state="yyyyyyrrrrrrrrrrrryyyyyyrrrrrrrrrrrrryry" />
    <phase duration="2.0" state="rrrrrrrrrrrrrrrrrrrrrrrrrrrrrrrrrrrrrrrr" />
    <phase duration="5.0" state="rrrrrrrrrrrrrrrGGGrrrrrrrrrrrrrrrGGGrrrr" />
    <phase duration="3.0" state="rrrrrrrrrrrrrrryyyrrrrrrrrrrrrrrryyyrrrr" />
    <phase duration="1.0" state="rrrrrrrrrrrrrrrrrrrrrrrrrrrrrrrrrrrrrrrr" />
    <phase duration="22.0" state="rrrrrrrrrGGGGGGrrrrrrrrrrrrGGGGGGrrrGrGr" />
    <phase duration="3.2" state="rrrrrrrrryyyyyyrrrrrrrrrrrryyyyyyrrryryr" />
    <phase duration="2.0" state="rrrrrrrrrrrrrrrrrrrrrrrrrrrrrrrrrrrrrrrr" />
  </tlLogic>
  <tlLogic id="cluster_1984576776_3478559735_3478559736_3537422682_#1more" type="actuated" programID="1418903639#0_3" offset="0">
    <phase duration="5.0" state="rrrrrrGGGrrrrrrrrrrrrrrrGGGrrrrrrrrrrrrr" />
    <phase duration="3.0" state="rrrrrryyyrrrrrrrrrrrrrrrGGGrrrrrrrrrrrrr" />
    <phase duration="2.0" state="rrrrrrrrrrrrrrrrrrrrrrrrGGGrrrrrrrrrrrrr" />
    <phase duration="0.5" state="rrrrrrrrrrrrrrrrrrGGGGGGGGGrrrrrrrrrrGrr" />
    <phase duration="3.0" state="rrrrrrrrrrrrrrrrrrGGGGGGyyyrrrrrrrrrrGrr" />
    <phase duration="1.0" state="rrrrrrrrrrrrrrrrrrGGGGGGrrrrrrrrrrrrrGrr" />
    <phase duration="36.1" state="GGGGGGrrrrrrrrrrrrGGGGGGrrrrrrrrrrrrrGrG" />
    <phase duration="0.1" state="yyyyyyrrrrrrrrrrrrGGGGGGrrrrrrrrrrrrrGry" />
    <phase duration="3.5" state="yyyyyyrrrrrrrrrrrryyyyyyrrrrrrrrrrrrryry" />
    <phase duration="0.1" state="rrrrrrrrrrrrrrrrrryyyyyyrrrrrrrrrrrrryrr" />
    <phase duration="2.0" state="rrrrrrrrrrrrrrrrrrrrrrrrrrrrrrrrrrrrrrrr" />
    <phase duration="5.3" state="rrrrrrrrrrrrrrrGGGrrrrrrrrrrrrrrrGGGrrrr" />
    <phase duration="3.0" state="rrrrrrrrrrrrrrryyyrrrrrrrrrrrrrrryyyrrrr" />
    <phase duration="1.0" state="rrrrrrrrrrrrrrrrrrrrrrrrrrrrrrrrrrrrrrrr" />
    <phase duration="29.3" state="rrrrrrrrrGGGGGGrrrrrrrrrrrrGGGGGGrrrGrGr" />
    <phase duration="3.2" state="rrrrrrrrryyyyyyrrrrrrrrrrrryyyyyyrrryryr" />
    <phase duration="2.0" state="rrrrrrrrrrrrrrrrrrrrrrrrrrrrrrrrrrrrrrrr" />
  </tlLogic>
  <tlLogic id="cluster_1984576776_3478559735_3478559736_3537422682_#1more" type="actuated" programID="-417034082#1_2" offset="0">
    <phase duration="5.0" state="rrrrrrGGGrrrrrrrrrrrrrrrGGGrrrrrrrrrrrrr" />
    <phase duration="3.0" state="rrrrrryyyrrrrrrrrrrrrrrrGGGrrrrrrrrrrrrr" />
    <phase duration="2.0" state="rrrrrrrrrrrrrrrrrrrrrrrrGGGrrrrrrrrrrrrr" />
    <phase duration="0.2" state="rrrrrrrrrrrrrrrrrrGGGGGGGGGrrrrrrrrrrGrr" />
    <phase duration="3.0" state="rrrrrrrrrrrrrrrrrrGGGGGGyyyrrrrrrrrrrGrr" />
    <phase duration="1.0" state="rrrrrrrrrrrrrrrrrrGGGGGGrrrrrrrrrrrrrGrr" />
    <phase duration="13.7" state="GGGGGGrrrrrrrrrrrrGGGGGGrrrrrrrrrrrrrGrG" />
    <phase duration="3.6" state="yyyyyyrrrrrrrrrrrryyyyyyrrrrrrrrrrrrryry" />
    <phase duration="2.0" state="rrrrrrrrrrrrrrrrrrrrrrrrrrrrrrrrrrrrrrrr" />
    <phase duration="5.0" state="rrrrrrrrrrrrrrrGGGrrrrrrrrrrrrrrrGGGrrrr" />
    <phase duration="3.0" state="rrrrrrrrrrrrrrrGGGrrrrrrrrrrrrrrryyyrrrr" />
    <phase duration="1.0" state="rrrrrrrrrrrrrrrGGGrrrrrrrrrrrrrrrrrrrrrr" />
    <phase duration="9.3" state="rrrrrrrrrGGGGGGGGGrrrrrrrrrrrrrrrrrrGrrr" />
    <phase duration="3.0" state="rrrrrrrrrGGGGGGyyyrrrrrrrrrrrrrrrrrrGrrr" />
    <phase duration="1.0" state="rrrrrrrrrGGGGGGrrrrrrrrrrrrrrrrrrrrrGrrr" />
    <phase duration="39.0" state="rrrrrrrrrGGGGGGrrrrrrrrrrrrGGGGGGrrrGrGr" />
    <phase duration="3.2" state="rrrrrrrrryyyyyyrrrrrrrrrrrryyyyyyrrryryr" />
    <phase duration="2.0" state="rrrrrrrrrrrrrrrrrrrrrrrrrrrrrrrrrrrrrrrr" />
  </tlLogic>
  <tlLogic id="cluster_1984576776_3478559735_3478559736_3537422682_#1more" type="actuated" programID="-417034082#1_3" offset="0">
    <phase duration="5.0" state="rrrrrrGGGrrrrrrrrrrrrrrrGGGrrrrrrrrrrrrr" />
    <phase duration="3.0" state="rrrrrryyyrrrrrrrrrrrrrrrGGGrrrrrrrrrrrrr" />
    <phase duration="2.0" state="rrrrrrrrrrrrrrrrrrrrrrrrGGGrrrrrrrrrrrrr" />
    <phase duration="6.6" state="rrrrrrrrrrrrrrrrrrGGGGGGGGGrrrrrrrrrrGrr" />
    <phase duration="3.0" state="rrrrrrrrrrrrrrrrrrGGGGGGyyyrrrrrrrrrrGrr" />
    <phase duration="1.0" state="rrrrrrrrrrrrrrrrrrGGGGGGrrrrrrrrrrrrrGrr" />
    <phase duration="19.9" state="GGGGGGrrrrrrrrrrrrGGGGGGrrrrrrrrrrrrrGrG" />
    <phase duration="3.6" state="yyyyyyrrrrrrrrrrrryyyyyyrrrrrrrrrrrrryry" />
    <phase duration="2.0" state="rrrrrrrrrrrrrrrrrrrrrrrrrrrrrrrrrrrrrrrr" />
    <phase duration="5.0" state="rrrrrrrrrrrrrrrGGGrrrrrrrrrrrrrrrGGGrrrr" />
    <phase duration="3.0" state="rrrrrrrrrrrrrrryyyrrrrrrrrrrrrrrryyyrrrr" />
    <phase duration="1.0" state="rrrrrrrrrrrrrrrrrrrrrrrrrrrrrrrrrrrrrrrr" />
    <phase duration="39.7" state="rrrrrrrrrGGGGGGrrrrrrrrrrrrGGGGGGrrrGrGr" />
    <phase duration="3.2" state="rrrrrrrrryyyyyyrrrrrrrrrrrryyyyyyrrryryr" />
    <phase duration="2.0" state="rrrrrrrrrrrrrrrrrrrrrrrrrrrrrrrrrrrrrrrr" />
  </tlLogic>
  <tlLogic id="cluster_1984576776_3478559735_3478559736_3537422682_#1more" type="actuated" programID="-417034082#1_1" offset="0">
    <phase duration="5.0" state="rrrrrrGGGrrrrrrrrrrrrrrrGGGrrrrrrrrrrrrr" />
    <phase duration="3.0" state="rrrrrryyyrrrrrrrrrrrrrrrGGGrrrrrrrrrrrrr" />
    <phase duration="2.0" state="rrrrrrrrrrrrrrrrrrrrrrrrGGGrrrrrrrrrrrrr" />
    <phase duration="0.2" state="rrrrrrrrrrrrrrrrrrGGGGGGGGGrrrrrrrrrrGrr" />
    <phase duration="3.0" state="rrrrrrrrrrrrrrrrrrGGGGGGyyyrrrrrrrrrrGrr" />
    <phase duration="1.0" state="rrrrrrrrrrrrrrrrrrGGGGGGrrrrrrrrrrrrrGrr" />
    <phase duration="13.7" state="GGGGGGrrrrrrrrrrrrGGGGGGrrrrrrrrrrrrrGrG" />
    <phase duration="3.6" state="yyyyyyrrrrrrrrrrrryyyyyyrrrrrrrrrrrrryry" />
    <phase duration="2.0" state="rrrrrrrrrrrrrrrrrrrrrrrrrrrrrrrrrrrrrrrr" />
    <phase duration="5.0" state="rrrrrrrrrrrrrrrGGGrrrrrrrrrrrrrrrGGGrrrr" />
    <phase duration="3.0" state="rrrrrrrrrrrrrrrGGGrrrrrrrrrrrrrrryyyrrrr" />
    <phase duration="1.0" state="rrrrrrrrrrrrrrrGGGrrrrrrrrrrrrrrrrrrrrrr" />
    <phase duration="9.3" state="rrrrrrrrrGGGGGGGGGrrrrrrrrrrrrrrrrrrGrrr" />
    <phase duration="3.0" state="rrrrrrrrrGGGGGGyyyrrrrrrrrrrrrrrrrrrGrrr" />
    <phase duration="1.0" state="rrrrrrrrrGGGGGGrrrrrrrrrrrrrrrrrrrrrGrrr" />
    <phase duration="39.0" state="rrrrrrrrrGGGGGGrrrrrrrrrrrrGGGGGGrrrGrGr" />
    <phase duration="3.2" state="rrrrrrrrryyyyyyrrrrrrrrrrrryyyyyyrrryryr" />
    <phase duration="2.0" state="rrrrrrrrrrrrrrrrrrrrrrrrrrrrrrrrrrrrrrrr" />
  </tlLogic>
  <tlLogic id="cluster_1984576776_3478559735_3478559736_3537422682_#1more" type="actuated" programID="-416901230#1_1" offset="0">
    <phase duration="5.0" state="rrrrrrGGGrrrrrrrrrrrrrrrGGGrrrrrrrrrrrrr" />
    <phase duration="3.0" state="rrrrrryyyrrrrrrrrrrrrrrrGGGrrrrrrrrrrrrr" />
    <phase duration="2.0" state="rrrrrrrrrrrrrrrrrrrrrrrrGGGrrrrrrrrrrrrr" />
    <phase duration="18.9" state="rrrrrrrrrrrrrrrrrrGGGGGGGGGrrrrrrrrrrGrr" />
    <phase duration="3.0" state="rrrrrrrrrrrrrrrrrrGGGGGGyyyrrrrrrrrrrGrr" />
    <phase duration="1.0" state="rrrrrrrrrrrrrrrrrrGGGGGGrrrrrrrrrrrrrGrr" />
    <phase duration="31.6" state="GGGGGGrrrrrrrrrrrrGGGGGGrrrrrrrrrrrrrGrG" />
    <phase duration="0.1" state="GGGGGGrrrrrrrrrrrryyyyyyrrrrrrrrrrrrryrG" />
    <phase duration="3.5" state="yyyyyyrrrrrrrrrrrryyyyyyrrrrrrrrrrrrryry" />
    <phase duration="0.1" state="yyyyyyrrrrrrrrrrrrrrrrrrrrrrrrrrrrrrrrry" />
    <phase duration="2.0" state="rrrrrrrrrrrrrrrrrrrrrrrrrrrrrrrrrrrrrrrr" />
    <phase duration="5.0" state="rrrrrrrrrrrrrrrGGGrrrrrrrrrrrrrrrGGGrrrr" />
    <phase duration="3.0" state="rrrrrrrrrrrrrrryyyrrrrrrrrrrrrrrryyyrrrr" />
    <phase duration="1.0" state="rrrrrrrrrrrrrrrrrrrrrrrrrrrrrrrrrrrrrrrr" />
    <phase duration="15.7" state="rrrrrrrrrGGGGGGrrrrrrrrrrrrGGGGGGrrrGrGr" />
    <phase duration="3.2" state="rrrrrrrrryyyyyyrrrrrrrrrrrryyyyyyrrryryr" />
    <phase duration="2.0" state="rrrrrrrrrrrrrrrrrrrrrrrrrrrrrrrrrrrrrrrr" />
  </tlLogic>
  <tlLogic id="cluster_1984576776_3478559735_3478559736_3537422682_#1more" type="actuated" programID="-416901230#1_2" offset="0">
    <phase duration="5.0" state="rrrrrrGGGrrrrrrrrrrrrrrrGGGrrrrrrrrrrrrr" />
    <phase duration="3.0" state="rrrrrryyyrrrrrrrrrrrrrrrGGGrrrrrrrrrrrrr" />
    <phase duration="2.0" state="rrrrrrrrrrrrrrrrrrrrrrrrGGGrrrrrrrrrrrrr" />
    <phase duration="18.9" state="rrrrrrrrrrrrrrrrrrGGGGGGGGGrrrrrrrrrrGrr" />
    <phase duration="3.0" state="rrrrrrrrrrrrrrrrrrGGGGGGyyyrrrrrrrrrrGrr" />
    <phase duration="1.0" state="rrrrrrrrrrrrrrrrrrGGGGGGrrrrrrrrrrrrrGrr" />
    <phase duration="31.6" state="GGGGGGrrrrrrrrrrrrGGGGGGrrrrrrrrrrrrrGrG" />
    <phase duration="0.1" state="GGGGGGrrrrrrrrrrrryyyyyyrrrrrrrrrrrrryrG" />
    <phase duration="3.5" state="yyyyyyrrrrrrrrrrrryyyyyyrrrrrrrrrrrrryry" />
    <phase duration="0.1" state="yyyyyyrrrrrrrrrrrrrrrrrrrrrrrrrrrrrrrrry" />
    <phase duration="2.0" state="rrrrrrrrrrrrrrrrrrrrrrrrrrrrrrrrrrrrrrrr" />
    <phase duration="5.0" state="rrrrrrrrrrrrrrrGGGrrrrrrrrrrrrrrrGGGrrrr" />
    <phase duration="3.0" state="rrrrrrrrrrrrrrryyyrrrrrrrrrrrrrrryyyrrrr" />
    <phase duration="1.0" state="rrrrrrrrrrrrrrrrrrrrrrrrrrrrrrrrrrrrrrrr" />
    <phase duration="15.7" state="rrrrrrrrrGGGGGGrrrrrrrrrrrrGGGGGGrrrGrGr" />
    <phase duration="3.2" state="rrrrrrrrryyyyyyrrrrrrrrrrrryyyyyyrrryryr" />
    <phase duration="2.0" state="rrrrrrrrrrrrrrrrrrrrrrrrrrrrrrrrrrrrrrrr" />
  </tlLogic>
  <tlLogic id="cluster_1984576776_3478559735_3478559736_3537422682_#1more" type="actuated" programID="-416901230#1_3" offset="0">
    <phase duration="5.0" state="rrrrrrGGGrrrrrrrrrrrrrrrGGGrrrrrrrrrrrrr" />
    <phase duration="3.0" state="rrrrrryyyrrrrrrrrrrrrrrryyyrrrrrrrrrrrrr" />
    <phase duration="1.0" state="rrrrrrrrrrrrrrrrrrrrrrrrrrrrrrrrrrrrrrrr" />
    <phase duration="1.0" state="GGGGGGrrrrrrrrrrrrrrrrrrrrrrrrrrrrrrrrrG" />
    <phase duration="41.9" state="GGGGGGrrrrrrrrrrrrGGGGGGrrrrrrrrrrrrrGrG" />
    <phase duration="3.6" state="yyyyyyrrrrrrrrrrrryyyyyyrrrrrrrrrrrrryry" />
    <phase duration="2.0" state="rrrrrrrrrrrrrrrrrrrrrrrrrrrrrrrrrrrrrrrr" />
    <phase duration="5.0" state="rrrrrrrrrrrrrrrGGGrrrrrrrrrrrrrrrGGGrrrr" />
    <phase duration="3.0" state="rrrrrrrrrrrrrrryyyrrrrrrrrrrrrrrryyyrrrr" />
    <phase duration="1.0" state="rrrrrrrrrrrrrrrrrrrrrrrrrrrrrrrrrrrrrrrr" />
    <phase duration="28.3" state="rrrrrrrrrGGGGGGrrrrrrrrrrrrGGGGGGrrrGrGr" />
    <phase duration="3.2" state="rrrrrrrrryyyyyyrrrrrrrrrrrryyyyyyrrryryr" />
    <phase duration="2.0" state="rrrrrrrrrrrrrrrrrrrrrrrrrrrrrrrrrrrrrrrr" />
  </tlLogic>
  <tlLogic id="cluster_1984576776_3478559735_3478559736_3537422682_#1more" type="actuated" programID="-416901209#1_2" offset="0">
    <phase duration="5.0" state="rrrrrrGGGrrrrrrrrrrrrrrrGGGrrrrrrrrrrrrr" />
    <phase duration="3.0" state="rrrrrryyyrrrrrrrrrrrrrrrGGGrrrrrrrrrrrrr" />
    <phase duration="2.0" state="rrrrrrrrrrrrrrrrrrrrrrrrGGGrrrrrrrrrrrrr" />
    <phase duration="0.2" state="rrrrrrrrrrrrrrrrrrGGGGGGGGGrrrrrrrrrrGrr" />
    <phase duration="3.0" state="rrrrrrrrrrrrrrrrrrGGGGGGyyyrrrrrrrrrrGrr" />
    <phase duration="1.0" state="rrrrrrrrrrrrrrrrrrGGGGGGrrrrrrrrrrrrrGrr" />
    <phase duration="13.7" state="GGGGGGrrrrrrrrrrrrGGGGGGrrrrrrrrrrrrrGrG" />
    <phase duration="3.6" state="yyyyyyrrrrrrrrrrrryyyyyyrrrrrrrrrrrrryry" />
    <phase duration="2.0" state="rrrrrrrrrrrrrrrrrrrrrrrrrrrrrrrrrrrrrrrr" />
    <phase duration="5.0" state="rrrrrrrrrrrrrrrGGGrrrrrrrrrrrrrrrGGGrrrr" />
    <phase duration="3.0" state="rrrrrrrrrrrrrrryyyrrrrrrrrrrrrrrrGGGrrrr" />
    <phase duration="1.0" state="rrrrrrrrrrrrrrrrrrrrrrrrrrrrrrrrrGGGrrrr" />
    <phase duration="9.3" state="rrrrrrrrrrrrrrrrrrrrrrrrrrrGGGGGGGGGrrGr" />
    <phase duration="3.0" state="rrrrrrrrrrrrrrrrrrrrrrrrrrrGGGGGGyyyrrGr" />
    <phase duration="1.0" state="rrrrrrrrrrrrrrrrrrrrrrrrrrrGGGGGGrrrrrGr" />
    <phase duration="39.0" state="rrrrrrrrrGGGGGGrrrrrrrrrrrrGGGGGGrrrGrGr" />
    <phase duration="3.2" state="rrrrrrrrryyyyyyrrrrrrrrrrrryyyyyyrrryryr" />
    <phase duration="2.0" state="rrrrrrrrrrrrrrrrrrrrrrrrrrrrrrrrrrrrrrrr" />
  </tlLogic>
  <tlLogic id="cluster_1984576776_3478559735_3478559736_3537422682_#1more" type="actuated" programID="-416901209#1_3" offset="0">
    <phase duration="5.0" state="rrrrrrGGGrrrrrrrrrrrrrrrGGGrrrrrrrrrrrrr" />
    <phase duration="3.0" state="rrrrrryyyrrrrrrrrrrrrrrrGGGrrrrrrrrrrrrr" />
    <phase duration="2.0" state="rrrrrrrrrrrrrrrrrrrrrrrrGGGrrrrrrrrrrrrr" />
    <phase duration="6.6" state="rrrrrrrrrrrrrrrrrrGGGGGGGGGrrrrrrrrrrGrr" />
    <phase duration="3.0" state="rrrrrrrrrrrrrrrrrrGGGGGGyyyrrrrrrrrrrGrr" />
    <phase duration="1.0" state="rrrrrrrrrrrrrrrrrrGGGGGGrrrrrrrrrrrrrGrr" />
    <phase duration="19.9" state="GGGGGGrrrrrrrrrrrrGGGGGGrrrrrrrrrrrrrGrG" />
    <phase duration="3.6" state="yyyyyyrrrrrrrrrrrryyyyyyrrrrrrrrrrrrryry" />
    <phase duration="2.0" state="rrrrrrrrrrrrrrrrrrrrrrrrrrrrrrrrrrrrrrrr" />
    <phase duration="5.0" state="rrrrrrrrrrrrrrrGGGrrrrrrrrrrrrrrrGGGrrrr" />
    <phase duration="3.0" state="rrrrrrrrrrrrrrryyyrrrrrrrrrrrrrrryyyrrrr" />
    <phase duration="1.0" state="rrrrrrrrrrrrrrrrrrrrrrrrrrrrrrrrrrrrrrrr" />
    <phase duration="39.7" state="rrrrrrrrrGGGGGGrrrrrrrrrrrrGGGGGGrrrGrGr" />
    <phase duration="3.2" state="rrrrrrrrryyyyyyrrrrrrrrrrrryyyyyyrrryryr" />
    <phase duration="2.0" state="rrrrrrrrrrrrrrrrrrrrrrrrrrrrrrrrrrrrrrrr" />
  </tlLogic>
  <tlLogic id="cluster_1984576776_3478559735_3478559736_3537422682_#1more" type="actuated" programID="-416901209#1_1" offset="0">
    <phase duration="5.0" state="rrrrrrGGGrrrrrrrrrrrrrrrGGGrrrrrrrrrrrrr" />
    <phase duration="3.0" state="rrrrrryyyrrrrrrrrrrrrrrrGGGrrrrrrrrrrrrr" />
    <phase duration="2.0" state="rrrrrrrrrrrrrrrrrrrrrrrrGGGrrrrrrrrrrrrr" />
    <phase duration="0.2" state="rrrrrrrrrrrrrrrrrrGGGGGGGGGrrrrrrrrrrGrr" />
    <phase duration="3.0" state="rrrrrrrrrrrrrrrrrrGGGGGGyyyrrrrrrrrrrGrr" />
    <phase duration="1.0" state="rrrrrrrrrrrrrrrrrrGGGGGGrrrrrrrrrrrrrGrr" />
    <phase duration="13.7" state="GGGGGGrrrrrrrrrrrrGGGGGGrrrrrrrrrrrrrGrG" />
    <phase duration="3.6" state="yyyyyyrrrrrrrrrrrryyyyyyrrrrrrrrrrrrryry" />
    <phase duration="2.0" state="rrrrrrrrrrrrrrrrrrrrrrrrrrrrrrrrrrrrrrrr" />
    <phase duration="5.0" state="rrrrrrrrrrrrrrrGGGrrrrrrrrrrrrrrrGGGrrrr" />
    <phase duration="3.0" state="rrrrrrrrrrrrrrryyyrrrrrrrrrrrrrrrGGGrrrr" />
    <phase duration="1.0" state="rrrrrrrrrrrrrrrrrrrrrrrrrrrrrrrrrGGGrrrr" />
    <phase duration="9.3" state="rrrrrrrrrrrrrrrrrrrrrrrrrrrGGGGGGGGGrrGr" />
    <phase duration="3.0" state="rrrrrrrrrrrrrrrrrrrrrrrrrrrGGGGGGyyyrrGr" />
    <phase duration="1.0" state="rrrrrrrrrrrrrrrrrrrrrrrrrrrGGGGGGrrrrrGr" />
    <phase duration="39.0" state="rrrrrrrrrGGGGGGrrrrrrrrrrrrGGGGGGrrrGrGr" />
    <phase duration="3.2" state="rrrrrrrrryyyyyyrrrrrrrrrrrryyyyyyrrryryr" />
    <phase duration="2.0" state="rrrrrrrrrrrrrrrrrrrrrrrrrrrrrrrrrrrrrrrr" />
  </tlLogic>
  <tlLogic id="cluster_1984576776_3478559735_3478559736_3537422682_#1more" type="actuated" programID="opt" offset="0">
    <phase duration="5.0" state="rrrrrrGGGrrrrrrrrrrrrrrrGGGrrrrrrrrrrrrr" />
    <phase duration="3.0" state="rrrrrryyyrrrrrrrrrrrrrrrGGGrrrrrrrrrrrrr" />
    <phase duration="2.0" state="rrrrrrrrrrrrrrrrrrrrrrrrGGGrrrrrrrrrrrrr" />
    <phase duration="9.6" state="rrrrrrrrrrrrrrrrrrGGGGGGGGGrrrrrrrrrrGrr" />
    <phase duration="3.0" state="rrrrrrrrrrrrrrrrrrGGGGGGyyyrrrrrrrrrrGrr" />
    <phase duration="1.0" state="rrrrrrrrrrrrrrrrrrGGGGGGrrrrrrrrrrrrrGrr" />
    <phase duration="22.8" state="GGGGGGrrrrrrrrrrrrGGGGGGrrrrrrrrrrrrrGrG" />
    <phase duration="3.6" state="yyyyyyrrrrrrrrrrrryyyyyyrrrrrrrrrrrrryry" />
    <phase duration="2.0" state="rrrrrrrrrrrrrrrrrrrrrrrrrrrrrrrrrrrrrrrr" />
    <phase duration="7.7" state="rrrrrrrrrrrrrrrGGGrrrrrrrrrrrrrrrGGGrrrr" />
    <phase duration="3.0" state="rrrrrrrrrrrrrrryyyrrrrrrrrrrrrrrryyyrrrr" />
    <phase duration="1.0" state="rrrrrrrrrrrrrrrrrrrrrrrrrrrrrrrrrrrrrrrr" />
    <phase duration="31.1" state="rrrrrrrrrGGGGGGrrrrrrrrrrrrGGGGGGrrrGrGr" />
    <phase duration="3.2" state="rrrrrrrrryyyyyyrrrrrrrrrrrryyyyyyrrryryr" />
    <phase duration="2.0" state="rrrrrrrrrrrrrrrrrrrrrrrrrrrrrrrrrrrrrrrr" />
  </tlLogic>
  <tlLogic id="cluster_1984576776_3478559735_3478559736_3537422682_#1more" type="actuated" programID="org" offset="0">
    <phase duration="9.0" state="rrrrrrGGGrrrrrrrrrrrrrrrGGGrrrrrrrrrrrrr" />
    <phase duration="3.0" state="rrrrrryyyrrrrrrrrrrrrrrrGGGrrrrrrrrrrrrr" />
    <phase duration="2.0" state="rrrrrrrrrrrrrrrrrrrrrrrrGGGrrrrrrrrrrrrr" />
    <phase duration="3.0" state="rrrrrrrrrrrrrrrrrrGGGGGGyyyrrrrrrrrrrGrr" />
    <phase duration="1.0" state="rrrrrrrrrrrrrrrrrrGGGGGGrrrrrrrrrrrrrGrr" />
    <phase duration="26.4" state="GGGGGGrrrrrrrrrrrrGGGGGGrrrrrrrrrrrrrGrG" />
    <phase duration="3.6" state="yyyyyyrrrrrrrrrrrryyyyyyrrrrrrrrrrrrryry" />
    <phase duration="2.0" state="rrrrrrrrrrrrrrrrrrrrrrrrrrrrrrrrrrrrrrrr" />
    <phase duration="12.0" state="rrrrrrrrrrrrrrrGGGrrrrrrrrrrrrrrrGGGrrrr" />
    <phase duration="1.0" state="rrrrrrrrrrrrrrrGGGrrrrrrrrrrrrrrryyyrrrr" />
    <phase duration="2.0" state="rrrrrrrrrrrrrrryyyrrrrrrrrrrrrrrryyyrrrr" />
    <phase duration="1.0" state="rrrrrrrrrrrrrrryyyrrrrrrrrrrrrrrrrrrrrrr" />
    <phase duration="1.0" state="rrrrrrrrrGGGGGGrrrrrrrrrrrrrrrrrrrrrGrrr" />
    <phase duration="27.8" state="rrrrrrrrrGGGGGGrrrrrrrrrrrrGGGGGGrrrGrGr" />
    <phase duration="3.2" state="rrrrrrrrryyyyyyrrrrrrrrrrrryyyyyyrrryryr" />
    <phase duration="2.0" state="rrrrrrrrrrrrrrrrrrrrrrrrrrrrrrrrrrrrrrrr" />
  </tlLogic>
</additional>