<?xml version="1.0" encoding="UTF-8"?>

<!-- generated on 2026-01-28 10:26:56 by Eclipse SUMO netconvert Version 1.22.0
<netconvertConfiguration xmlns:xsi="http://www.w3.org/2001/XMLSchema-instance" xsi:noNamespaceSchemaLocation="http://sumo.dlr.de/xsd/netconvertConfiguration.xsd">

    <input>
        <type-files value="${SUMO_HOME}\data\typemap\osmNetconvert.typ.xml,${SUMO_HOME}\data\typemap\osmNetconvertUrbanDe.typ.xml,${SUMO_HOME}\data\typemap\osmNetconvertPedestrians.typ.xml,${SUMO_HOME}\data\typemap\osmNetconvertBicycle.typ.xml"/>
        <osm-files value="osm_bbox.osm.xml.gz"/>
    </input>

    <output>
        <output-file value="osm.net.xml.gz"/>
        <output.street-names value="true"/>
        <output.original-names value="true"/>
    </output>

    <projection>
        <proj value="+proj=merc +a=6378137 +b=6378137 +lat_ts=0.0 +lon_0=0.0 +x_0=0.0 +y_0=0 +k=1.0 +units=m +nadgrids=@null +wktext +no_defs"/>
    </projection>

    <processing>
        <geometry.remove value="true"/>
        <roundabouts.guess value="true"/>
    </processing>

    <tls_building>
        <tls.discard-simple value="true"/>
        <tls.join value="true"/>
        <tls.guess-signals value="true"/>
        <tls.default-type value="actuated"/>
    </tls_building>

    <ramp_guessing>
        <ramps.guess value="true"/>
    </ramp_guessing>

    <junctions>
        <junctions.join value="true"/>
        <junctions.corner-detail value="5"/>
    </junctions>

    <pedestrian>
        <crossings.guess value="true"/>
    </pedestrian>

    <formats>
        <osm.bike-access value="true"/>
        <osm.sidewalks value="true"/>
    </formats>

</netconvertConfiguration>
-->

<net version="1.20" junctionCornerDetail="5" walkingareas="true" limitTurnSpeed="5.50" xmlns:xsi="http://www.w3.org/2001/XMLSchema-instance" xsi:noNamespaceSchemaLocation="http://sumo.dlr.de/xsd/net_file.xsd">

    <location netOffset="13569265.44,-4485757.02" convBoundary="0.00,0.00,576.61,430.10" origBoundary="-121.894792,37.333944,-121.889606,37.337016" projParameter="+proj=merc +a=6378137 +b=6378137 +lat_ts=0.0 +lon_0=0.0 +x_0=0.0 +y_0=0 +k=1.0 +units=m +nadgrids=@null +wktext +no_defs"/>

    <type id="highway.cycleway" priority="1" numLanes="1" speed="5.56" allow="bicycle" oneway="0" width="2.00"/>
    <type id="highway.footway" priority="1" numLanes="1" speed="2.78" allow="pedestrian" oneway="1" width="2.00"/>
    <type id="highway.pedestrian" priority="1" numLanes="1" speed="2.78" allow="pedestrian" oneway="1" width="2.00"/>
    <type id="highway.primary" priority="12" numLanes="2" speed="13.89" disallow="pedestrian tram rail_urban rail rail_electric rail_fast ship container cable_car subway aircraft wheelchair scooter drone" oneway="0" width="3.66" sidewalkWidth="3.00"/>
    <type id="highway.residential" priority="3" numLanes="1" speed="13.89" disallow="pedestrian tram rail_urban rail rail_electric rail_fast ship container cable_car subway aircraft wheelchair scooter drone" oneway="0" sidewalkWidth="2.00"/>
    <type id="highway.secondary" priority="11" numLanes="1" speed="13.89" disallow="pedestrian tram rail_urban rail rail_electric rail_fast ship container cable_car subway aircraft wheelchair scooter drone" oneway="0" width="3.66" sidewalkWidth="3.00"/>
    <type id="highway.service" priority="1" numLanes="1" speed="5.56" allow="pedestrian delivery bicycle" oneway="0"/>
    <type id="highway.steps" priority="1" numLanes="1" speed="1.39" allow="pedestrian" oneway="1" width="2.00"/>
    <type id="highway.tertiary" priority="10" numLanes="1" speed="13.89" disallow="pedestrian tram rail_urban rail rail_electric rail_fast ship container cable_car subway aircraft wheelchair scooter drone" oneway="0" sidewalkWidth="3.00"/>
    <type id="railway.light_rail" priority="19" numLanes="1" speed="27.78" allow="rail_urban" oneway="1"/>

    <edge id=":10102739535_0" function="internal">
        <lane id=":10102739535_0_0" index="0" allow="pedestrian delivery bicycle" speed="3.65" length="4.67" shape="242.57,-0.44 243.88,-1.05 244.77,-0.98 245.25,-0.22 245.31,1.22"/>
    </edge>
    <edge id=":10735065971_0" function="internal">
        <lane id=":10735065971_0_0" index="0" allow="delivery bicycle" speed="5.04" length="5.00" shape="271.65,69.18 270.39,68.65 269.26,68.66 268.26,69.19 267.40,70.25"/>
    </edge>
    <edge id=":10735065971_1" function="internal">
        <lane id=":10735065971_1_0" index="0" allow="delivery bicycle" speed="6.88" length="10.14" shape="271.65,69.18 269.49,67.43 268.39,65.41 268.37,63.12 269.41,60.56"/>
    </edge>
    <edge id=":10735065971_2" function="internal">
        <lane id=":10735065971_2_0" index="0" allow="pedestrian delivery bicycle" speed="3.65" length="4.67" shape="271.65,69.18 271.03,67.88 271.10,66.99 271.85,66.51 273.29,66.44"/>
    </edge>
    <edge id=":10735065971_3" function="internal">
        <lane id=":10735065971_3_0" index="0" allow="delivery bicycle" speed="5.06" length="5.02" shape="272.17,62.17 271.66,63.44 271.67,64.57 272.22,65.57 273.29,66.44"/>
    </edge>
    <edge id=":10735065971_4" function="internal">
        <lane id=":10735065971_4_0" index="0" disallow="pedestrian tram rail_urban rail rail_electric rail_fast ship container cable_car subway aircraft wheelchair scooter drone" speed="13.89" length="9.38" shape="272.17,62.17 267.40,70.25"/>
    </edge>
    <edge id=":10735065971_5" function="internal">
        <lane id=":10735065971_5_0" index="0" disallow="pedestrian tram rail_urban rail rail_electric rail_fast ship container cable_car subway aircraft wheelchair scooter drone" speed="13.89" length="9.35" shape="264.65,68.61 269.41,60.56"/>
    </edge>
    <edge id=":10735065971_6" function="internal">
        <lane id=":10735065971_6_0" index="0" allow="delivery bicycle" speed="6.86" length="3.24" shape="264.65,68.61 266.40,66.45 266.80,66.23"/>
    </edge>
    <edge id=":10735065971_7" function="internal">
        <lane id=":10735065971_7_0" index="0" allow="delivery bicycle" speed="6.86" length="6.93" shape="266.80,66.23 268.43,65.36 270.72,65.36 273.29,66.44"/>
    </edge>
    <edge id=":10735065971_w0" function="walkingarea">
        <lane id=":10735065971_w0_0" index="0" allow="pedestrian" speed="2.78" length="3.20" width="3.20" shape="270.83,70.56 272.47,67.81 274.11,65.07"/>
    </edge>
    <edge id=":10735065972_0" function="internal">
        <lane id=":10735065972_0_0" index="0" allow="pedestrian delivery bicycle" speed="5.56" length="5.01" shape="278.81,73.47 274.51,70.90"/>
    </edge>
    <edge id=":10735065972_1" function="internal">
        <lane id=":10735065972_1_0" index="0" allow="pedestrian delivery bicycle" speed="3.65" length="1.44" shape="278.81,73.47 278.19,72.16"/>
    </edge>
    <edge id=":10735065972_4" function="internal">
        <lane id=":10735065972_4_0" index="0" allow="pedestrian delivery bicycle" speed="3.65" length="3.23" shape="278.19,72.16 278.26,71.27 279.02,70.79 280.46,70.72"/>
    </edge>
    <edge id=":10735065972_2" function="internal">
        <lane id=":10735065972_2_0" index="0" allow="pedestrian delivery bicycle" speed="5.56" length="5.00" shape="276.16,68.15 280.46,70.72"/>
    </edge>
    <edge id=":10735065972_3" function="internal">
        <lane id=":10735065972_3_0" index="0" allow="pedestrian delivery bicycle" speed="3.65" length="1.44" shape="276.16,68.15 276.78,69.46"/>
    </edge>
    <edge id=":10735065972_5" function="internal">
        <lane id=":10735065972_5_0" index="0" allow="pedestrian delivery bicycle" speed="3.65" length="3.23" shape="276.78,69.46 276.71,70.35 275.95,70.83 274.51,70.90"/>
    </edge>
    <edge id=":10735065972_w0" function="walkingarea">
        <lane id=":10735065972_w0_0" index="0" allow="pedestrian" speed="2.78" length="5.38" width="6.40" shape="277.99,74.84 281.28,69.34 280.63,68.80 280.49,68.47 280.46,68.12 280.55,67.72 280.76,67.29 279.04,66.27 278.47,66.90 278.14,67.04 277.78,67.07 277.40,66.98 276.98,66.78 273.69,72.27 274.32,72.84 274.46,73.17 274.49,73.53 274.41,73.91 274.21,74.33 275.92,75.36 276.47,74.75 276.79,74.61 277.14,74.57 277.52,74.63"/>
    </edge>
    <edge id=":10735065974_0" function="internal">
        <lane id=":10735065974_0_0" index="0" allow="pedestrian delivery bicycle" speed="3.65" length="4.67" shape="303.34,82.96 304.02,84.23 304.00,85.12 303.27,85.64 301.83,85.78"/>
    </edge>
    <edge id=":12556328274_0" function="internal">
        <lane id=":12556328274_0_0" index="0" disallow="pedestrian tram rail_urban rail rail_electric rail_fast ship container cable_car subway aircraft wheelchair scooter drone" speed="13.89" length="8.70" width="3.66" shape="206.69,385.93 205.91,388.37 206.22,390.31 206.53,392.26 205.75,394.69"/>
        <lane id=":12556328274_0_1" index="1" disallow="pedestrian tram rail_urban rail rail_electric rail_fast ship container cable_car subway aircraft wheelchair scooter drone" speed="13.89" length="8.70" width="3.66" shape="203.54,384.07 202.77,386.50 203.07,388.44 203.38,390.39 202.60,392.82"/>
        <lane id=":12556328274_0_2" index="2" disallow="pedestrian tram rail_urban rail rail_electric rail_fast ship container cable_car subway aircraft wheelchair scooter drone" speed="13.89" length="8.70" width="3.66" shape="203.54,384.07 199.46,390.95"/>
    </edge>
    <edge id=":12556328274_3" function="internal">
        <lane id=":12556328274_3_0" index="0" disallow="pedestrian tram rail_urban rail rail_electric rail_fast ship container cable_car subway aircraft wheelchair scooter drone" speed="13.89" length="7.99" width="3.66" shape="193.17,387.20 197.24,380.34"/>
        <lane id=":12556328274_3_1" index="1" disallow="pedestrian tram rail_urban rail rail_electric rail_fast ship container cable_car subway aircraft wheelchair scooter drone" speed="13.89" length="7.99" width="3.66" shape="196.31,389.07 200.39,382.20"/>
    </edge>
    <edge id=":12556328275_0" function="internal">
        <lane id=":12556328275_0_0" index="0" disallow="pedestrian tram rail_urban rail rail_electric rail_fast ship container cable_car subway aircraft wheelchair scooter drone" speed="13.89" length="7.97" width="3.66" shape="199.51,405.18 195.46,412.02"/>
        <lane id=":12556328275_0_1" index="1" disallow="pedestrian tram rail_urban rail rail_electric rail_fast ship container cable_car subway aircraft wheelchair scooter drone" speed="13.89" length="7.97" width="3.66" shape="196.36,403.31 192.31,410.17"/>
        <lane id=":12556328275_0_2" index="2" disallow="pedestrian tram rail_urban rail rail_electric rail_fast ship container cable_car subway aircraft wheelchair scooter drone" speed="13.89" length="7.97" width="3.66" shape="193.22,401.43 189.15,408.31"/>
    </edge>
    <edge id=":12556328275_3" function="internal">
        <lane id=":12556328275_3_0" index="0" disallow="pedestrian tram rail_urban rail rail_electric rail_fast ship container cable_car subway aircraft wheelchair scooter drone" speed="13.89" length="9.07" width="3.66" shape="179.68,402.76 181.44,400.89 183.29,400.22 185.16,399.55 186.93,397.69"/>
        <lane id=":12556328275_3_1" index="1" disallow="pedestrian tram rail_urban rail rail_electric rail_fast ship container cable_car subway aircraft wheelchair scooter drone" speed="13.89" length="9.07" width="3.66" shape="182.84,404.61 184.59,402.75 186.45,402.08 188.30,401.41 190.07,399.56"/>
    </edge>
    <edge id=":12755716358_0" function="internal">
        <lane id=":12755716358_0_0" index="0" allow="pedestrian delivery bicycle" speed="3.65" length="4.67" shape="499.78,83.00 499.13,81.71 499.18,80.82 499.92,80.32 501.36,80.22"/>
    </edge>
    <edge id=":12755716359_0" function="internal">
        <lane id=":12755716359_0_0" index="0" allow="pedestrian delivery bicycle" speed="3.65" length="4.67" shape="552.27,109.19 552.92,110.47 552.87,111.37 552.12,111.86 550.69,111.97"/>
    </edge>
    <edge id=":12755716361_0" function="internal">
        <lane id=":12755716361_0_0" index="0" disallow="pedestrian tram rail_urban rail rail_electric rail_fast ship container cable_car subway aircraft wheelchair scooter drone" speed="3.90" length="5.35" width="3.66" shape="528.04,6.54 527.29,5.06 527.34,4.04 528.19,3.47 529.83,3.35"/>
    </edge>
    <edge id=":12784544153_w0" function="walkingarea">
        <lane id=":12784544153_w0_0" index="0" allow="pedestrian" speed="2.78" length="3.85" width="2.00" shape="291.00,52.29 288.98,50.40 288.18,50.79 287.87,50.84 287.54,50.83 287.14,50.76 286.63,50.67 285.44,52.49 286.26,52.83 286.44,53.11 286.48,53.47 286.38,53.90 286.13,54.41 287.84,55.44 289.13,53.52 289.69,52.88 290.18,52.47 290.62,52.27"/>
    </edge>
    <edge id=":12895287944_0" function="internal">
        <lane id=":12895287944_0_0" index="0" allow="pedestrian delivery bicycle" speed="3.65" length="4.67" shape="355.12,269.06 356.40,268.41 357.30,268.45 357.80,269.19 357.91,270.63"/>
    </edge>
    <edge id=":12895287954_w0" function="walkingarea">
        <lane id=":12895287954_w0_0" index="0" allow="pedestrian" speed="2.78" length="4.03" width="2.00" shape="480.12,270.65 478.40,269.62 477.83,270.25 477.50,270.40 477.13,270.43 476.74,270.34 476.31,270.14 475.31,271.87 475.94,272.43 476.09,272.76 476.12,273.11 476.03,273.50 475.83,273.91 477.55,274.94"/>
    </edge>
    <edge id=":12895287955_w0" function="walkingarea">
        <lane id=":12895287955_w0_0" index="0" allow="pedestrian" speed="2.78" length="4.03" width="2.00" shape="437.65,276.97 438.69,275.26 438.06,274.68 437.92,274.35 437.90,273.99 437.98,273.60 438.18,273.19 436.47,272.16 435.90,272.78 435.57,272.93 435.21,272.95 434.83,272.87 434.42,272.66 433.38,274.37"/>
    </edge>
    <edge id=":13099222537_w0" function="walkingarea">
        <lane id=":13099222537_w0_0" index="0" allow="pedestrian" speed="2.78" length="3.51" width="2.00" shape="570.46,284.64 568.67,283.74 568.15,284.40 567.84,284.56 567.50,284.60 567.12,284.52 566.71,284.32 565.68,286.04 567.61,286.71 568.45,286.62 569.20,286.25 569.87,285.59"/>
    </edge>
    <edge id=":283287539_0" function="internal">
        <lane id=":283287539_0_0" index="0" allow="rail_urban" speed="3.58" length="5.02" shape="514.12,251.30 511.58,255.63"/>
    </edge>
    <edge id=":283287539_c0" function="crossing" crossingEdges="329181091#0">
        <lane id=":283287539_c0_0" index="0" allow="pedestrian" speed="2.78" length="3.20" width="4.00" shape="511.47,252.67 514.24,254.28" outlineShape="512.48,250.94 515.24,252.55 513.23,256.01 510.46,254.39"/>
    </edge>
    <edge id=":283287539_w0" function="walkingarea">
        <lane id=":283287539_w0_0" index="0" allow="pedestrian" speed="2.78" length="0.57" width="4.00" shape="514.20,255.44 515.22,253.72 515.24,252.55 513.23,256.01"/>
    </edge>
    <edge id=":283287539_w1" function="walkingarea">
        <lane id=":283287539_w1_0" index="0" allow="pedestrian" speed="2.78" length="0.90" width="4.00" shape="510.46,254.39 512.48,250.94 511.22,251.33 510.19,253.05"/>
    </edge>
    <edge id=":3215365374_0" function="internal">
        <lane id=":3215365374_0_0" index="0" allow="pedestrian delivery bicycle" speed="5.56" length="9.36" shape="345.60,393.28 340.67,401.23"/>
    </edge>
    <edge id=":3215365374_1" function="internal">
        <lane id=":3215365374_1_0" index="0" allow="pedestrian delivery bicycle" speed="5.56" length="10.15" shape="345.60,393.28 343.83,395.36 341.79,396.39 339.46,396.37 336.86,395.31"/>
    </edge>
    <edge id=":3215365374_2" function="internal">
        <lane id=":3215365374_2_0" index="0" allow="pedestrian delivery bicycle" speed="3.65" length="4.67" shape="345.60,393.28 344.28,393.88 343.39,393.79 342.93,393.03 342.89,391.58"/>
    </edge>
    <edge id=":3215365374_3" function="internal">
        <lane id=":3215365374_3_0" index="0" allow="pedestrian delivery bicycle" speed="5.15" length="5.12" shape="338.46,392.54 339.79,393.09 340.97,393.11 342.00,392.61 342.89,391.58"/>
    </edge>
    <edge id=":3215365374_4" function="internal">
        <lane id=":3215365374_4_0" index="0" allow="pedestrian delivery bicycle" speed="5.56" length="10.29" shape="338.46,392.54 340.69,394.29 341.80,396.32 341.79,398.64 340.67,401.23"/>
    </edge>
    <edge id=":3215365374_5" function="internal">
        <lane id=":3215365374_5_0" index="0" allow="pedestrian delivery bicycle" speed="3.65" length="4.67" shape="338.46,392.54 339.10,393.83 339.05,394.72 338.30,395.22 336.86,395.31"/>
    </edge>
    <edge id=":3215365374_6" function="internal">
        <lane id=":3215365374_6_0" index="0" allow="pedestrian delivery bicycle" speed="5.01" length="5.03" shape="337.94,399.56 338.49,398.29 338.49,397.16 337.95,396.17 336.86,395.31"/>
    </edge>
    <edge id=":3215365374_7" function="internal">
        <lane id=":3215365374_7_0" index="0" allow="pedestrian delivery bicycle" speed="5.56" length="9.39" shape="337.94,399.56 342.89,391.58"/>
    </edge>
    <edge id=":3215365374_8" function="internal">
        <lane id=":3215365374_8_0" index="0" allow="pedestrian delivery bicycle" speed="3.65" length="4.67" shape="337.94,399.56 339.25,398.96 340.14,399.03 340.61,399.79 340.67,401.23"/>
    </edge>
    <edge id=":3215365374_w0" function="walkingarea">
        <lane id=":3215365374_w0_0" index="0" allow="pedestrian" speed="2.78" length="6.89" width="6.40" shape="346.95,394.13 341.53,390.73 340.92,391.35 340.57,391.47 340.17,391.49 339.73,391.38 339.26,391.15 336.06,396.70 336.70,397.26 336.84,397.58 336.87,397.93 336.78,398.31 336.58,398.73 342.03,402.07"/>
    </edge>
    <edge id=":3215365377_0" function="internal">
        <lane id=":3215365377_0_0" index="0" allow="pedestrian delivery bicycle" speed="5.56" length="9.62" shape="278.97,343.67 270.70,338.76"/>
    </edge>
    <edge id=":3215365377_1" function="internal">
        <lane id=":3215365377_1_0" index="0" allow="pedestrian delivery bicycle" speed="5.56" length="10.31" shape="278.97,343.67 276.72,341.94 275.59,339.92 275.58,337.60 276.69,334.99"/>
    </edge>
    <edge id=":3215365377_2" function="internal">
        <lane id=":3215365377_2_0" index="0" allow="pedestrian delivery bicycle" speed="3.65" length="4.67" shape="278.97,343.67 278.31,342.39 278.36,341.49 279.10,340.99 280.54,340.89"/>
    </edge>
    <edge id=":3215365377_3" function="internal">
        <lane id=":3215365377_3_0" index="0" allow="pedestrian delivery bicycle" speed="5.01" length="5.04" shape="279.42,336.64 278.88,337.92 278.89,339.05 279.44,340.04 280.54,340.89"/>
    </edge>
    <edge id=":3215365377_4" function="internal">
        <lane id=":3215365377_4_0" index="0" allow="pedestrian delivery bicycle" speed="5.56" length="10.28" shape="279.42,336.64 277.63,338.84 275.58,339.92 273.27,339.89 270.70,338.76"/>
    </edge>
    <edge id=":3215365377_5" function="internal">
        <lane id=":3215365377_5_0" index="0" allow="pedestrian delivery bicycle" speed="3.65" length="4.67" shape="279.42,336.64 278.12,337.26 277.23,337.18 276.75,336.43 276.69,334.99"/>
    </edge>
    <edge id=":3215365377_6" function="internal">
        <lane id=":3215365377_6_0" index="0" allow="pedestrian delivery bicycle" speed="5.04" length="5.06" shape="272.40,336.04 273.66,336.60 274.79,336.61 275.80,336.07 276.69,334.99"/>
    </edge>
    <edge id=":3215365377_7" function="internal">
        <lane id=":3215365377_7_0" index="0" allow="pedestrian delivery bicycle" speed="5.56" length="9.47" shape="272.40,336.04 280.54,340.89"/>
    </edge>
    <edge id=":3215365377_8" function="internal">
        <lane id=":3215365377_8_0" index="0" allow="pedestrian delivery bicycle" speed="3.65" length="4.67" shape="272.40,336.04 272.99,337.36 272.90,338.25 272.14,338.72 270.70,338.76"/>
    </edge>
    <edge id=":3215365377_w0" function="walkingarea">
        <lane id=":3215365377_w0_0" index="0" allow="pedestrian" speed="2.78" length="6.92" width="6.40" shape="278.18,345.07 281.32,339.49 280.68,338.94 280.54,338.62 280.51,338.27 280.59,337.88 280.79,337.47 275.32,334.16 274.73,334.81 274.40,334.95 274.04,334.98 273.66,334.90 273.24,334.69 269.85,340.11"/>
    </edge>
    <edge id=":3215365378_0" function="internal">
        <lane id=":3215365378_0_0" index="0" allow="pedestrian delivery bicycle" speed="5.05" length="5.00" shape="299.02,310.23 297.76,309.70 296.63,309.70 295.63,310.23 294.76,311.29"/>
    </edge>
    <edge id=":3215365378_1" function="internal">
        <lane id=":3215365378_1_0" index="0" allow="pedestrian delivery bicycle" speed="5.56" length="9.39" shape="299.02,310.23 290.98,305.38"/>
    </edge>
    <edge id=":3215365378_2" function="internal">
        <lane id=":3215365378_2_0" index="0" allow="pedestrian delivery bicycle" speed="3.65" length="4.67" shape="299.02,310.23 298.40,308.93 298.47,308.04 299.22,307.56 300.66,307.49"/>
    </edge>
    <edge id=":3215365378_3" function="internal">
        <lane id=":3215365378_3_0" index="0" allow="pedestrian delivery bicycle" speed="5.56" length="9.38" shape="292.64,302.64 300.66,307.49"/>
    </edge>
    <edge id=":3215365378_4" function="internal">
        <lane id=":3215365378_4_0" index="0" allow="pedestrian delivery bicycle" speed="5.56" length="10.15" shape="292.64,302.64 294.79,304.41 295.86,306.44 295.85,308.73 294.76,311.29"/>
    </edge>
    <edge id=":3215365378_5" function="internal">
        <lane id=":3215365378_5_0" index="0" allow="pedestrian delivery bicycle" speed="3.65" length="4.67" shape="292.64,302.64 293.25,303.95 293.17,304.84 292.42,305.32 290.98,305.38"/>
    </edge>
    <edge id=":3215365378_6" function="internal">
        <lane id=":3215365378_6_0" index="0" allow="pedestrian delivery bicycle" speed="5.04" length="5.00" shape="292.02,309.64 292.56,308.38 292.56,307.25 292.03,306.25 290.98,305.38"/>
    </edge>
    <edge id=":3215365378_7" function="internal">
        <lane id=":3215365378_7_0" index="0" allow="pedestrian delivery bicycle" speed="5.56" length="10.15" shape="292.02,309.64 293.78,307.48 295.81,306.41 298.10,306.41 300.66,307.49"/>
    </edge>
    <edge id=":3215365378_8" function="internal">
        <lane id=":3215365378_8_0" index="0" allow="pedestrian delivery bicycle" speed="3.65" length="4.67" shape="292.02,309.64 293.33,309.02 294.22,309.09 294.70,309.85 294.76,311.29"/>
    </edge>
    <edge id=":3215365378_w0" function="walkingarea">
        <lane id=":3215365378_w0_0" index="0" allow="pedestrian" speed="2.78" length="6.86" width="6.40" shape="298.19,311.60 301.49,306.12 293.47,301.27 290.15,306.75 290.77,307.32 290.91,307.65 290.94,308.01 290.85,308.39 290.65,308.81 296.13,312.12 296.70,311.49 297.03,311.35 297.39,311.32 297.78,311.40"/>
    </edge>
    <edge id=":3215365380_0" function="internal">
        <lane id=":3215365380_0_0" index="0" allow="pedestrian delivery bicycle" speed="5.56" length="16.97" shape="334.63,411.07 332.63,413.13 329.38,414.79 324.89,416.04 319.17,416.89"/>
    </edge>
    <edge id=":3215365380_1" function="internal">
        <lane id=":3215365380_1_0" index="0" allow="pedestrian delivery bicycle" speed="5.56" length="16.41" shape="334.63,411.07 332.51,412.92 329.30,413.33 325.00,412.31 319.60,409.85"/>
    </edge>
    <edge id=":3215365380_2" function="internal">
        <lane id=":3215365380_2_0" index="0" allow="pedestrian delivery bicycle" speed="3.65" length="4.67" shape="334.63,411.07 333.32,411.68 332.43,411.60 331.96,410.84 331.91,409.40"/>
    </edge>
    <edge id=":3215365380_3" function="internal">
        <lane id=":3215365380_3_0" index="0" allow="pedestrian delivery bicycle" speed="5.56" length="11.67" shape="321.11,407.03 325.24,409.03 328.42,410.09 330.64,410.21 331.91,409.40"/>
    </edge>
    <edge id=":3215365380_4" function="internal">
        <lane id=":3215365380_4_0" index="0" allow="pedestrian delivery bicycle" speed="5.56" length="19.82" shape="321.11,407.03 326.68,410.69 328.21,413.55 325.70,415.62 319.17,416.89"/>
    </edge>
    <edge id=":3215365380_5" function="internal">
        <lane id=":3215365380_5_0" index="0" allow="pedestrian delivery bicycle" speed="3.65" length="4.67" shape="321.11,407.03 321.79,408.30 321.77,409.19 321.04,409.71 319.60,409.85"/>
    </edge>
    <edge id=":3215365380_6" function="internal">
        <lane id=":3215365380_6_0" index="0" allow="pedestrian delivery bicycle" speed="4.80" length="7.76" shape="318.84,413.71 321.40,413.21 322.38,412.40 321.78,411.28 319.60,409.85"/>
    </edge>
    <edge id=":3215365380_7" function="internal">
        <lane id=":3215365380_7_0" index="0" allow="pedestrian delivery bicycle" speed="5.56" length="14.07" shape="318.84,413.71 323.83,413.02 327.67,412.06 330.36,410.86 331.91,409.40"/>
    </edge>
    <edge id=":3215365380_8" function="internal">
        <lane id=":3215365380_8_0" index="0" allow="pedestrian delivery bicycle" speed="3.65" length="4.67" shape="318.84,413.71 320.12,414.39 320.59,415.14 320.28,415.98 319.17,416.89"/>
    </edge>
    <edge id=":3215365380_w0" function="walkingarea">
        <lane id=":3215365380_w0_0" index="0" allow="pedestrian" speed="2.78" length="10.09" width="6.40" shape="336.00,411.91 330.54,408.56 329.23,408.80 327.98,408.46 326.34,407.82 324.30,406.87 321.87,405.62 318.85,411.26 319.42,411.67 319.47,411.83 319.36,411.96 319.10,412.05 318.68,412.12 319.33,418.49 323.54,417.92 327.17,417.14 330.24,416.15 332.73,414.95 334.65,413.53"/>
    </edge>
    <edge id=":3215365381_0" function="internal">
        <lane id=":3215365381_0_0" index="0" allow="pedestrian delivery bicycle" speed="5.08" length="5.05" shape="317.48,321.32 316.22,320.79 315.09,320.80 314.07,321.35 313.18,322.42"/>
    </edge>
    <edge id=":3215365381_1" function="internal">
        <lane id=":3215365381_1_0" index="0" allow="pedestrian delivery bicycle" speed="5.56" length="9.40" shape="317.48,321.32 309.42,316.48"/>
    </edge>
    <edge id=":3215365381_2" function="internal">
        <lane id=":3215365381_2_0" index="0" allow="pedestrian delivery bicycle" speed="3.65" length="4.67" shape="317.48,321.32 316.86,320.02 316.93,319.12 317.69,318.64 319.13,318.58"/>
    </edge>
    <edge id=":3215365381_3" function="internal">
        <lane id=":3215365381_3_0" index="0" allow="pedestrian delivery bicycle" speed="5.56" length="9.40" shape="311.07,313.74 319.13,318.58"/>
    </edge>
    <edge id=":3215365381_4" function="internal">
        <lane id=":3215365381_4_0" index="0" allow="pedestrian delivery bicycle" speed="5.56" length="10.22" shape="311.07,313.74 313.25,315.51 314.32,317.55 314.30,319.85 313.18,322.42"/>
    </edge>
    <edge id=":3215365381_5" function="internal">
        <lane id=":3215365381_5_0" index="0" allow="pedestrian delivery bicycle" speed="3.65" length="4.67" shape="311.07,313.74 311.69,315.04 311.62,315.93 310.86,316.41 309.42,316.48"/>
    </edge>
    <edge id=":3215365381_6" function="internal">
        <lane id=":3215365381_6_0" index="0" allow="pedestrian delivery bicycle" speed="5.03" length="5.02" shape="310.46,320.74 311.01,319.48 311.02,318.35 310.49,317.35 309.42,316.48"/>
    </edge>
    <edge id=":3215365381_7" function="internal">
        <lane id=":3215365381_7_0" index="0" allow="pedestrian delivery bicycle" speed="5.56" length="10.16" shape="310.46,320.74 312.24,318.59 314.29,317.51 316.58,317.51 319.13,318.58"/>
    </edge>
    <edge id=":3215365381_8" function="internal">
        <lane id=":3215365381_8_0" index="0" allow="pedestrian delivery bicycle" speed="3.65" length="4.67" shape="310.46,320.74 311.77,320.14 312.66,320.22 313.13,320.98 313.18,322.42"/>
    </edge>
    <edge id=":3215365381_w0" function="walkingarea">
        <lane id=":3215365381_w0_0" index="0" allow="pedestrian" speed="2.78" length="6.88" width="6.40" shape="316.66,322.69 319.95,317.21 311.89,312.36 308.60,317.85 309.22,318.42 309.37,318.75 309.39,319.10 309.30,319.49 309.10,319.90 314.54,323.26 315.14,322.60 315.48,322.45 315.85,322.41 316.24,322.49"/>
    </edge>
    <edge id=":3215365382_0" function="internal">
        <lane id=":3215365382_0_0" index="0" allow="pedestrian delivery bicycle" speed="5.56" length="9.40" shape="308.75,379.09 300.60,374.39"/>
    </edge>
    <edge id=":3215365382_1" function="internal">
        <lane id=":3215365382_1_0" index="0" allow="pedestrian delivery bicycle" speed="5.56" length="10.21" shape="308.75,379.09 306.55,377.37 305.43,375.35 305.41,373.05 306.48,370.46"/>
    </edge>
    <edge id=":3215365382_2" function="internal">
        <lane id=":3215365382_2_0" index="0" allow="pedestrian delivery bicycle" speed="3.65" length="4.67" shape="308.75,379.09 308.11,377.80 308.16,376.91 308.91,376.42 310.35,376.32"/>
    </edge>
    <edge id=":3215365382_3" function="internal">
        <lane id=":3215365382_3_0" index="0" allow="pedestrian delivery bicycle" speed="5.03" length="5.01" shape="309.23,372.08 308.71,373.35 308.72,374.48 309.27,375.47 310.35,376.32"/>
    </edge>
    <edge id=":3215365382_4" function="internal">
        <lane id=":3215365382_4_0" index="0" allow="pedestrian delivery bicycle" speed="5.56" length="10.16" shape="309.23,372.08 307.49,374.27 305.47,375.38 303.18,375.42 300.60,374.39"/>
    </edge>
    <edge id=":3215365382_5" function="internal">
        <lane id=":3215365382_5_0" index="0" allow="pedestrian delivery bicycle" speed="3.65" length="4.67" shape="309.23,372.08 307.93,372.71 307.04,372.65 306.56,371.90 306.48,370.46"/>
    </edge>
    <edge id=":3215365382_6" function="internal">
        <lane id=":3215365382_6_0" index="0" allow="pedestrian delivery bicycle" speed="5.07" length="5.04" shape="302.21,371.62 303.47,372.13 304.61,372.10 305.61,371.55 306.48,370.46"/>
    </edge>
    <edge id=":3215365382_7" function="internal">
        <lane id=":3215365382_7_0" index="0" allow="pedestrian delivery bicycle" speed="5.56" length="9.40" shape="302.21,371.62 310.35,376.32"/>
    </edge>
    <edge id=":3215365382_8" function="internal">
        <lane id=":3215365382_8_0" index="0" allow="pedestrian delivery bicycle" speed="3.65" length="4.67" shape="302.21,371.62 302.84,372.92 302.79,373.81 302.04,374.30 300.60,374.39"/>