<?xml version="1.0" encoding="UTF-8"?>

<!-- generated on 2026-01-28 21:22:42 by Eclipse SUMO netedit Version 1.23.1
-->

<routes xmlns:xsi="http://www.w3.org/2001/XMLSchema-instance" xsi:noNamespaceSchemaLocation="http://sumo.dlr.de/xsd/routes_file.xsd">
    <!-- Routes -->
    <route id="r_0" edges="-417034218#1 -28463687#0 -417034180 -416901230#1 416901209#1 416901209#2 157782193#0 157782193#1 157782193#2 1356653262 1356653263 -1356653263 -1356653262 -157782193#2 -157782193#1 -157782193#0"/>
    <route id="r_1" edges="-417034218#1 -28463687#0 -417034180 -416901230#1 -1418903639#0 -157782383 -517627277 -416901218#1"/>
    <route id="r_10" edges="-157782193#0 -416901209#2 -416901209#1 417034082#1 417034071 417034088#0"/>
    <route id="r_11" edges="-157782193#0 -416901209#2 -416901209#1 416901230#1 417034180 28463687#0 417034218#1"/>
    <route id="r_2" edges="-417034218#1 -28463687#0 -417034180 -416901230#1 417034082#1 417034071 417034088#0"/>
    <route id="r_3" edges="-417034088#0 -417034071 -417034082#1 416901230#1 417034180 28463687#0 417034218#1"/>
    <route id="r_4" edges="-417034088#0 -417034071 -417034082#1 416901209#1 416901209#2 157782193#0"/>
    <route id="r_5" edges="-417034088#0 -417034071 -417034082#1 -1418903639#0 -157782383 -517627277 -416901218#1"/>
    <route id="r_6" edges="416901218#1 517627277 157782383 1418903639#0 417034082#1 417034071 417034088#0"/>
    <route id="r_7" edges="416901218#1 517627277 157782383 1418903639#0 416901230#1 417034180 28463687#0 417034218#1"/>
    <route id="r_8" edges="416901218#1 517627277 157782383 1418903639#0 416901209#1 416901209#2 157782193#0"/>
    <route id="r_9" edges="-157782193#0 -416901209#2 -416901209#1 -1418903639#0 -157782383 -517627277 -416901218#1"/>
</routes>
