<?xml version="1.0" encoding="UTF-8"?>

<!-- generated on 2026-01-28 10:27:09.462873 by osmWebWizard.py v1_22_0+0002-63e50f52594
<configuration>
    <net-file value="C:\Users\print\Sumo\2026-01-28-10-26-47\osm.net.xml.gz"/>
    <output-trip-file value="C:\Users\print\Sumo\2026-01-28-10-26-47\osm.pedestrian.trips.xml"/>
    <route-file value="C:\Users\print\Sumo\2026-01-28-10-26-47\osm.pedestrian.rou.xml"/>
    <pedestrians value="True"/>
    <prefix value="ped"/>
    <vehicle-class value="pedestrian"/>
    <fringe-factor value="1"/>
    <max-distance value="2000.0"/>
    <insertion-density value="10.0"/>
</configuration>
-->

<!-- generated on 2026-01-28 10:27:09 by Eclipse SUMO duarouter Version 1.22.0
<duarouterConfiguration xmlns:xsi="http://www.w3.org/2001/XMLSchema-instance" xsi:noNamespaceSchemaLocation="http://sumo.dlr.de/xsd/duarouterConfiguration.xsd">

    <input>
        <net-file value="C:\Users\print\Sumo\2026-01-28-10-26-47\osm.net.xml.gz"/>
        <route-files value="C:\Users\print\Sumo\2026-01-28-10-26-47\osm.pedestrian.trips.xml"/>
    </input>

    <output>
        <output-file value="C:\Users\print\Sumo\2026-01-28-10-26-47\osm.pedestrian.rou.xml"/>
        <alternatives-output value="NUL"/>
    </output>

    <time>
        <begin value="0.0"/>
        <end value="3600.0"/>
    </time>

    <report>
        <no-warnings value="true"/>
        <ignore-errors value="true"/>
        <no-step-log value="true"/>
    </report>

</duarouterConfiguration>
-->

<routes xmlns:xsi="http://www.w3.org/2001/XMLSchema-instance" xsi:noNamespaceSchemaLocation="http://sumo.dlr.de/xsd/routes_file.xsd">
    <vType id="ped_pedestrian" vClass="pedestrian"/>
    <person id="ped0" type="ped_pedestrian" depart="0.00">
        <walk edges="619906535#1 529818739#2 529818739#3 529818739#4 529818739#5 547525131 1446997328 547525134#6 547525134#5 547525134#4 547525134#3 547525134#2 547525134#1 547525134#0 1377621710#2 -1377621711#1"/>
    </person>
    <person id="ped1" type="ped_pedestrian" depart="40.95">
        <walk edges="157782038#1 529820826#1 542176043#3 542176043#2 542176043#1 1393074075 1393074079 619906561#0 619906561#1 1033620067 834034603#0 1069163579#2 1069163579#1 547525134#5 547525134#4 547525134#3 547525134#2 547525134#1 547525134#0 1377621710#2 1377621711#1"/>
    </person>
    <person id="ped2" type="ped_pedestrian" depart="81.90">
        <walk edges="620990608 572889131#1 620990607 1067031390 1393074076#1 529819504#1 1393074081 1393074075 620140531#0"/>
    </person>
    <person id="ped3" type="ped_pedestrian" depart="122.85">
        <walk edges="839156934#1 672835470#0 672835470#1 672835471#1 672835472#2 672835472#1 672835468#1 529818211#0 619906549#1 619906549#0 547178301 529818394#0 529818394#1 -315421449#0 -315421453 -682704381"/>
    </person>
    <person id="ped4" type="ped_pedestrian" depart="163.80">
        <walk edges="529818216#0 500223728#0 500223728#1 529818213#4 542175808 542175810#0 542175810#1 542175811 529818211#1 619906549#1 619906549#0 547178301 529818394#0 529818394#1 -315421448#0"/>
    </person>
    <person id="ped5" type="ped_pedestrian" depart="204.75">
        <walk edges="1377621710#2 547525134#0 547525134#1 547525134#2 547525134#3 547525134#4 547525134#5 547525134#6 547525132#1 529818735 1067031385 529820254#1"/>
    </person>
    <person id="ped6" type="ped_pedestrian" depart="245.71">
        <walk edges="-1377621712 547525134#0 547525134#1 547525134#2 547525134#3 547525134#4 547525134#5 547525134#6 1446997328 547525131 529818739#5 529818739#4 529818739#3 529818739#2 542175815 619906534#1 542175808 529818213#5 839152831#0 1080416318#1 1080416318#0"/>
    </person>
    <person id="ped7" type="ped_pedestrian" depart="286.66">
        <walk edges="619906545#1 542175817 542175825 619906544#1 619906541 529818739#1 542175815"/>
    </person>
    <person id="ped8" type="ped_pedestrian" depart="327.61">
        <walk edges="1377621711#0 1377621710#2 547525134#0"/>
    </person>
    <person id="ped9" type="ped_pedestrian" depart="368.56">
        <walk edges="672835476 1070483546#2 1080407530 529818211#5 340610492#1 839156935#0 839156934#2 1080407527 839155571#1 839155574 -839155572 529818213#0 529818213#1 -1080416321#0"/>
    </person>
    <person id="ped10" type="ped_pedestrian" depart="409.51">
        <walk edges="672835475 672835468#1 529818211#0 619906549#1 619906549#0 547178301 1393074070 620140532#3 620140532#1 620140539#2 620140539#1 620140539#0"/>
    </person>
    <person id="ped11" type="ped_pedestrian" depart="450.46">
        <walk edges="340610492#0 529818211#5 1080407530 1070483546#1 1070483546#0 672835471#1 672835472#2 672835472#1 672835468#1 529818211#0 542175824 619906553#1 619906541 529818739#0 547525131 1446997328 547525134#6 1069163579#1 1069163579#2"/>
    </person>
    <person id="ped13" type="ped_pedestrian" depart="532.36">
        <walk edges="-682704382#1 529818394#1 -315421449#0 -315421453 -315421450#4 682704383#1 -682704383#0"/>
    </person>
    <person id="ped14" type="ped_pedestrian" depart="573.31">
        <walk edges="834034605#0 1069163579#1 547525134#5"/>
    </person>
    <person id="ped15" type="ped_pedestrian" depart="614.26">
        <walk edges="672835476 672835472#1 672835468#1 529818211#0 619906549#1 619906549#0 619906545#1 542175817 529819505 1393074072#0 619906557#1 620990606"/>
    </person>
    <person id="ped16" type="ped_pedestrian" depart="655.21">
        <walk edges="542175810#0 619906534#1 542175815 529818739#2 529818739#3 529818739#4 529818739#5 547525131 1446997328 547525134#6 547525134#5 547525134#4 547525134#3 998332924 998332917#2"/>
    </person>
    <person id="ped17" type="ped_pedestrian" depart="696.16">
        <walk edges="529818211#0 542175824"/>
    </person>
    <person id="ped18" type="ped_pedestrian" depart="737.12">
        <walk edges="682704382#1 529818394#0 547178301 619906549#0 619906549#1 529818211#1 542175811 619906537#1 619906534#0 542175804 529818740#0 542175800 619906508#1"/>
    </person>
    <person id="ped19" type="ped_pedestrian" depart="778.07">
        <walk edges="839155571#0 529818213#5 542175808 619906534#1 542175815 529818739#2 529818739#3 529818739#4 529818739#5 547525131"/>
    </person>
    <person id="ped20" type="ped_pedestrian" depart="819.02">
        <walk edges="620140539#2 620140532#1 620140532#3 1393074070 529818394#0 529818394#1 -315421449#0 -315421449#1 -315421454 -315421450#1"/>
    </person>
    <person id="ped21" type="ped_pedestrian" depart="859.97">
        <walk edges="1393074070 529818394#0 529818394#1 315421448#1"/>
    </person>
    <person id="ped22" type="ped_pedestrian" depart="900.92">
        <walk edges="-315421457#2 -315421450#0 -315421449#2 -315421449#1 -315421449#0 529818394#1 529818394#0 547178301 619906545#1 542175817 1393074071#1"/>
    </person>
    <person id="ped23" type="ped_pedestrian" depart="941.87">
        <walk edges="-834034603#0 1033620067 619906561#1 619906561#0 1393074079 1393074075 542176043#1 542176043#2 542176043#3 529820826#1 157782038#1 157782038#2"/>
    </person>
    <person id="ped24" type="ped_pedestrian" depart="982.82">
        <walk edges="619906535#0 619906534#0 619906534#1 542175808 529818213#5 839155571#0 839155571#1 839155571#2 839155571#3 839155571#4 503918003#3 503918003#2 878740672#1 878740672#0 878740670#1 878740671 503918003#0"/>
    </person>
    <person id="ped25" type="ped_pedestrian" depart="1023.77">
        <walk edges="503918003#2 503918003#3 839155571#4 839155571#3 839155571#2 839155571#1 839155571#0 529818213#5 542175808 619906534#1 542175815 529818739#2 1154282806#0"/>
    </person>
    <person id="ped26" type="ped_pedestrian" depart="1064.72">
        <walk edges="1446997328 620990605#1 619906557#1 620990608 572889131#1 620990607 619906561#2 1033620067 8950768#1"/>
    </person>
    <person id="ped27" type="ped_pedestrian" depart="1105.67">
        <walk edges="619906544#1 542175825 529819505 1393074072#0 619906557#1 620990608 572889131#1"/>
    </person>
    <person id="ped28" type="ped_pedestrian" depart="1146.62">
        <walk edges="1070483546#1 1070483546#0 672835471#1 672835472#2 672835472#1 672835468#1 529818211#0 619906549#1 619906549#0 619906545#1 542175817 529819505 1393074072#0 619906557#1 620990606"/>
    </person>
    <person id="ped29" type="ped_pedestrian" depart="1187.58">
        <walk edges="1070483544 -1070483547 672835474 908391161 672835473 672835472#2 672835472#1 672835468#1 529818211#0"/>
    </person>
    <person id="ped30" type="ped_pedestrian" depart="1228.53">
        <walk edges="998332924 547525134#3 547525134#4 547525134#5 547525134#6 1446997328 547525131 529818739#5 529818739#4 529818739#3 529818739#2 542175815 619906537#1"/>
    </person>
    <person id="ped31" type="ped_pedestrian" depart="1269.48">
        <walk edges="542175828#0 529819504#0 529819504#1 1393074081 620140534#1 1443060616#1 620140532#3"/>
    </person>
    <person id="ped32" type="ped_pedestrian" depart="1310.43">
        <walk edges="834034603#1 1069163579#2 1069163579#1 547525134#6 1446997328 547525131 529818739#0 619906541 619906553#1 542175824 529818211#0 672835468#1 672835472#1 672835472#2 672835471#1 672835470#1 672835470#0 -839156934#1 1080407527 839155571#2 839155571#3 839155571#4 623207827 623207829#1"/>
    </person>
    <person id="ped33" type="ped_pedestrian" depart="1351.38">
        <walk edges="1393074070 529818394#0 529818394#1 -315421449#0"/>
    </person>
    <person id="ped34" type="ped_pedestrian" depart="1392.33">
        <walk edges="315421451 -315421450#5 -315421450#4 -315421453 -315421449#0 529818394#1 529818394#0 547178301 619906545#1 542175817 529819505 1393074072#0 620990605#1 1446997328"/>
    </person>
    <person id="ped35" type="ped_pedestrian" depart="1433.28">
        <walk edges="1154282806#1 529818739#3 529818739#4 529818739#5 547525131 1446997328 620990605#1 1393074072#0 914260985#0"/>
    </person>
    <person id="ped36" type="ped_pedestrian" depart="1474.23">
        <walk edges="839155571#5 839155571#4 839155571#3 839155571#2 1080407527 -839156934#1 672835470#0 672835470#1 672835471#1 672835472#2 672835472#1 672835468#1 529818211#0 619906549#1 619906549#0 547178301 529818394#0 529818394#1 -315421449#0 -315421453 -315421450#4 -315421450#5 315421451"/>
    </person>
    <person id="ped37" type="ped_pedestrian" depart="1515.18">
        <walk edges="619906549#1 529818211#0 672835468#1 672835472#1 672835472#2 672835471#1 1070483546#0 1070483546#1 1080407530 529818211#5 529818211#6"/>
    </person>
    <person id="ped38" type="ped_pedestrian" depart="1556.13">
        <walk edges="878740671 878740670#1 878740672#0 878740672#1 503918003#2 503918003#3 839155571#4 839155571#3 839155571#2 839155571#1 839155571#0 529818213#5 542175808 619906534#1 619906534#0 542175804 529818740#1 529820251 620990578#0 620990578#1 620990577 529818737#1"/>
    </person>
    <person id="ped39" type="ped_pedestrian" depart="1597.08">
        <walk edges="1443060616#1 620140534#1 1393074079 1393074078"/>
    </person>
    <person id="ped40" type="ped_pedestrian" depart="1638.04">
        <walk edges="542175828#1 542175828#0 529819504#0 529819504#1 1393074081 620140534#1 1443060616#1"/>
    </person>
    <person id="ped41" type="ped_pedestrian" depart="1678.99">
        <walk edges="547525133#0 1446997329 547525131 529818739#0 619906541 619906553#1 542175824 529818211#0 672835468#1 672835472#1 672835472#2 672835471#1 672835470#1 672835470#0 -839156934#1 839156934#2 839156935#0"/>
    </person>
    <person id="ped42" type="ped_pedestrian" depart="1719.94">
        <walk edges="529818212#0 529818212#1 623207818 623207814#0 758897133 529818213#0 529818213#1 529818213#2 529818213#3 542175798 619906520#1 529818740#2 529820251 620990578#0 620990578#1 620990576#1 620990576#0 1067031385 529818735 547525132#1 547525134#6 547525134#5 547525134#4 547525134#3 547525134#2 547525134#1 547525134#0 1377621710#2 1377621711#0"/>
    </person>
    <person id="ped43" type="ped_pedestrian" depart="1760.89">
        <walk edges="998332926 998332925#0 998332923 547525134#5 1069163579#1 1069163579#2 834034603#0 1033620067 619906561#1 619906561#0 1393074079 1393074075 620140531#0 529820826#0"/>
    </person>
    <person id="ped44" type="ped_pedestrian" depart="1801.84">
        <walk edges="-682704382#0 529818394#1 -315421449#0 -315421453 -315421450#2"/>
    </person>
    <person id="ped45" type="ped_pedestrian" depart="1842.79">
        <walk edges="-834034605#1 1069163579#1 547525134#6 547525132#1 529818735 1067031385 620990576#0 620990576#1 620990578#1 620990578#0 529820251 529818740#2 542175800 619906508#1 619906522#1 500223726 619906523"/>
    </person>
    <person id="ped46" type="ped_pedestrian" depart="1883.74">
        <walk edges="672835471#1 672835470#1 529818211#2 542175811 542175810#1 542175810#0 542175808 529818213#4 500223728#1 500223728#0 529818216#0"/>
    </person>
    <person id="ped47" type="ped_pedestrian" depart="1924.69">
        <walk edges="-315421454 -315421449#1 -315421449#0 529818394#1 529818394#0 547178301 619906549#0 619906549#1 529818211#1"/>
    </person>
    <person id="ped48" type="ped_pedestrian" depart="1965.64">
        <walk edges="998332925#1 998332925#0 998332923 547525134#5 547525134#6 547525132#1 529818735 1067031385 620990576#0 620990576#1 620990578#1 620990578#0 529820251 529818740#2 542175800"/>
    </person>
    <person id="ped49" type="ped_pedestrian" depart="2006.59">
        <walk edges="998332917#1 998332924 547525134#3 547525134#4 547525134#5 547525134#6 1446997328 547525131 529818739#5 529818739#4 529818739#3 529818739#2 542175815 619906534#1 542175808 529818213#5 839152831#0 839152831#1 839152831#2"/>
    </person>
    <person id="ped50" type="ped_pedestrian" depart="2047.54">
        <walk edges="-1080416321#1 529818213#2 529818213#3 542175798 619906520#1 529818740#2 529820251 620990578#0 620990578#1 620990576#1 620990576#0 1067031385 620990602"/>
    </person>
    <person id="ped51" type="ped_pedestrian" depart="2088.49">
        <walk edges="620140532#1 620140532#3 1393074070 547178301 619906549#0 619906549#1 529818211#1 542175811 542175810#1 542175810#0"/>
    </person>
    <person id="ped52" type="ped_pedestrian" depart="2129.45">
        <walk edges="1446997328 547525131 529818739#5 529818739#4 529818739#3 529818739#2 542175815 619906537#1"/>
    </person>
    <person id="ped53" type="ped_pedestrian" depart="2170.40">
        <walk edges="-834034605#1 1069163579#1 547525134#6 620990605#1 1393074072#0 529819505 542175817 619906545#1 547178301 529818394#0 529818394#1"/>
    </person>
    <person id="ped54" type="ped_pedestrian" depart="2211.35">
        <walk edges="529818736#3 529818736#2 529818736#1 619906508#1 542175800 529818740#2 529820251 620990578#0 620990578#1 620990576#1 620990576#0 1067031385 529818735 547525132#1 547525134#6 547525134#5 547525134#4 547525134#3 547525134#2 998332908"/>
    </person>
    <person id="ped55" type="ped_pedestrian" depart="2252.30">
        <walk edges="839155571#4 839155571#3 839155571#2 1080407527 -839156934#1 672835470#0 672835470#1 672835471#1 672835472#2 672835472#1 672835468#1 529818211#0 619906549#1 619906549#0 547178301 1393074070 1443060616#1"/>
    </person>
    <person id="ped56" type="ped_pedestrian" depart="2293.25">
        <walk edges="529820252#0 529820251 529818740#1 542175804 619906534#0 619906537#1 542175811 529818211#2 672835470#1 672835471#1 672835473 908391161 672835474 1070483547"/>
    </person>
    <person id="ped57" type="ped_pedestrian" depart="2334.20">
        <walk edges="878740670#2 878740670#1 878740672#0 878740672#1 503918003#2 503918003#3 839155571#4 839155571#3"/>
    </person>
    <person id="ped58" type="ped_pedestrian" depart="2375.15">
        <walk edges="315421450#0 -315421449#2 -315421449#1 -315421449#0 529818394#1 529818394#0 547178301 619906549#0 619906549#1 542175824 619906553#1 619906541 529818739#1 619906535#1"/>
    </person>
    <person id="ped59" type="ped_pedestrian" depart="2416.10">
        <walk edges="572889131#1 620990607 619906561#2 1033620067 834034603#0 1069163579#2"/>
    </person>
    <person id="ped60" type="ped_pedestrian" depart="2457.05">
        <walk edges="623207820#1 623207817 529818213#1 529818213#2 529818213#3 529818213#4 542175808 542175810#0 542175810#1"/>
    </person>
    <person id="ped61" type="ped_pedestrian" depart="2498.00">
        <walk edges="672835468#0 672835468#1 672835472#1 672835472#2 672835471#1 672835470#1 529818211#2 542175811 619906537#1 619906534#0 542175804"/>
    </person>
    <person id="ped62" type="ped_pedestrian" depart="2538.95">
        <walk edges="-1070483545 672835478 672835474 908391161 672835473 672835472#2 672835472#1 672835468#1 529818211#0 619906549#1 619906549#0 547178301 529818394#0 529818394#1 -315421449#0 -315421449#1 -315421449#2 -315421450#0 -315421457#2 315421455#0"/>
    </person>
    <person id="ped63" type="ped_pedestrian" depart="2579.91">
        <walk edges="-1377621710#1 547525134#0 547525134#1 547525134#2 547525134#3 547525134#4 547525134#5 547525134#6 1446997328 547525131 529818739#0 619906541 619906553#1 542175824 529818211#0 672835468#1 672835472#1 672835472#2 672835471#1 672835470#1 672835470#0 -839156934#1 1080407527 839155571#2 839155571#3 839155571#4 503918003#3 878740674"/>
    </person>
    <person id="ped64" type="ped_pedestrian" depart="2620.86">
        <walk edges="839155571#5 839155571#4 839155571#3 839155571#2 1080407527 -839156934#1 672835470#0 672835470#1 672835471#1 672835472#2 672835472#1 672835468#1 529818211#0 619906549#1 619906549#0 547178301 529818394#0 529818394#1 -315421449#0 -315421453 -315421450#4 682704383#1"/>
    </person>
    <person id="ped65" type="ped_pedestrian" depart="2661.81">
        <walk edges="315421450#4 -315421452"/>
    </person>
    <person id="ped66" type="ped_pedestrian" depart="2702.76">
        <walk edges="839155571#5 839155571#4 839155571#3 839155571#2 1080407527 -839156934#1 672835470#0 672835470#1 672835471#1 672835472#2 672835472#1 672835468#1 529818211#0 619906549#1 619906549#0 619906545#1 542175817 529819505 914260985#1"/>
    </person>
    <person id="ped67" type="ped_pedestrian" depart="2743.71">
        <walk edges="-500513159#1 529818737#0 620990577 620990578#1 620990578#0 529820251 529818740#2"/>
    </person>
    <person id="ped68" type="ped_pedestrian" depart="2784.66">
        <walk edges="-315421455#2 -315421457#1 -315421450#0 -315421449#2 -315421449#1 -315421449#0 529818394#1 529818394#0 547178301 619906549#0 619906549#1 529818211#1 542175811 542175810#1 542175810#0 542175808 529818213#4 529818213#3 529818213#2 529818213#1 623207817 623207820#1 623207819"/>
    </person>
    <person id="ped69" type="ped_pedestrian" depart="2825.61">
        <walk edges="623207821 529818211#6 529818211#5 1080407530 1070483546#1 1070483546#0 672835471#1 672835472#2 672835472#1 672835468#1 529818211#0 619906549#1 619906549#0 619906545#1 542175817 1393074071#1 542175828#1 542175828#0 529819504#0 1393074076#1 1067031390 619906561#2 1033620067 -8950768#1"/>
    </person>
    <person id="ped70" type="ped_pedestrian" depart="2866.56">
        <walk edges="529818739#4 529818739#5 547525131 1446997328 620990605#1 1393074072#0 529819505 542175817"/>
    </person>
    <person id="ped71" type="ped_pedestrian" depart="2907.51">
        <walk edges="1443060616#1 1393074070 547178301 619906549#0 619906549#1 529818211#0 672835468#1 672835472#1 672835472#2 672835471#1 672835470#1 672835470#0 -839156934#1 1080407527 839155571#2 839155571#3"/>
    </person>
    <person id="ped72" type="ped_pedestrian" depart="2948.46">
        <walk edges="529818216#0 500223728#0 500223728#1 529818213#4 542175808 619906534#1 542175815 529818739#2 1154282806#1"/>
    </person>
    <person id="ped73" type="ped_pedestrian" depart="2989.41">
        <walk edges="542175810#1 542175811 529818211#1 619906549#1 619906549#0 619906545#1 542175817 529819505 1393074072#0 619906557#1 620990606"/>
    </person>
    <person id="ped74" type="ped_pedestrian" depart="3030.37">
        <walk edges="1080416318#1 839152831#0 529818213#5 542175808 542175810#0 542175810#1 542175811 529818211#1 619906549#1 619906549#0 547178301 529818394#0 529818394#1 -315421449#0 -315421453 -315421450#4 -315421450#5 315421450#6"/>
    </person>
    <person id="ped75" type="ped_pedestrian" depart="3071.32">
        <walk edges="998332925#1 998332925#0 998332923 547525134#5 547525134#6 620990605#1 1393074072#0 529819505 542175817 619906545#1"/>
    </person>
    <person id="ped77" type="ped_pedestrian" depart="3153.22">
        <walk edges="-839156934#1 672835470#0 672835470#1 672835471#1 672835472#2 672835472#1 672835468#1 529818211#0 542175824 619906553#1 619906541 529818739#0 547525131 1446997328 547525134#6 547525134#5 547525134#4 547525134#3 547525134#2 547525134#1 547525134#0 1377621710#2 1377621711#1"/>
    </person>
    <person id="ped78" type="ped_pedestrian" depart="3194.17">
        <walk edges="340610490#1 340610492#0 529818211#5 1080407530 1070483546#1 1070483546#0 672835471#1 672835472#2 672835472#1 672835468#1 529818211#0 542175824 619906553#1 619906541 529818739#0 547525131 1446997328 547525134#6 547525134#5 547525134#4 547525134#3 547525134#2 547525134#1 547525134#0"/>
    </person>
    <person id="ped79" type="ped_pedestrian" depart="3235.12">
        <walk edges="1393074070 1443060616#1 620140534#1 1393074079 619906561#0 619906561#1 1033620067 834034603#0 1069163579#2 1069163579#1 547525134#5 547525134#4 547525134#3 547525134#2 547525134#1 547525134#0 1377621710#2 1377621711#0"/>
    </person>
    <person id="ped80" type="ped_pedestrian" depart="3276.07">
        <walk edges="-315421455#2 -315421457#1 -315421450#0 -315421449#2 -315421449#1 -315421449#0 529818394#1 529818394#0 547178301 619906549#0 619906549#1 529818211#1 542175811 619906537#1 619906534#0"/>
    </person>
    <person id="ped81" type="ped_pedestrian" depart="3317.02">
        <walk edges="1393074070 547178301 619906549#0 619906549#1 529818211#0 672835468#1 672835472#1 672835472#2 672835471#1 672835470#1 672835470#0 -839156934#1 1080407527 839155571#2 839155571#3 839155571#4 503918003#3 503918003#2 878740672#1 878740672#0 878740670#0"/>
    </person>
    <person id="ped82" type="ped_pedestrian" depart="3357.97">
        <walk edges="839152831#2 839152831#1 839152831#0 529818213#5 542175808 542175810#0 542175810#1 542175811 529818211#1 619906549#1 619906549#0 547178301 529818394#0 529818394#1 -315421449#0 -315421449#1 -315421449#2 -315421450#0 -315421457#1 -315421455#2"/>
    </person>
    <person id="ped83" type="ped_pedestrian" depart="3398.92">
        <walk edges="1393074072#1 619906557#1 620990608 572889131#1 620990607 619906561#2"/>
    </person>
    <person id="ped84" type="ped_pedestrian" depart="3439.87">
        <walk edges="1377621710#0 547525134#0 547525134#1 547525134#2 547525134#3 547525134#4 547525134#5 547525134#6 620990605#1 1393074072#0 -914260985#0"/>
    </person>
    <person id="ped85" type="ped_pedestrian" depart="3480.82">
        <walk edges="8950768#0 620990609#1 619906561#0 1393074079 1393074075 620140531#1 620140539#1 620140533 542176044"/>
    </person>
    <person id="ped86" type="ped_pedestrian" depart="3521.78">
        <walk edges="529818739#4 529818739#3 529818739#2 542175815 157782202#0 157782202#1 -839156934#0 672835470#0"/>
    </person>
    <person id="ped87" type="ped_pedestrian" depart="3562.73">
        <walk edges="672835476 1070483546#2 1080407530 529818211#5 340610492#1 839156935#0 839156934#2 1080407527 839155571#1 839155571#0 839152831#0 839152831#1 1080416317#0"/>
    </person>
</routes>
