<?xml version="1.0" encoding="UTF-8"?>
<!-- Updated at 2026-02-05 16:05:46 -->
<additional xmlns:xsi="http://www.w3.org/2001/XMLSchema-instance" xsi:noNamespaceSchemaLocation="http://sumo.dlr.de/xsd/additional_file.xsd">
  <tlLogic id="cluster_1984576776_3478559735_3478559736_3537422682_#1more" type="actuated" programID="org" offset="0">
    <phase duration="2" state="rrrrrrrrrGGGGGGrrrrrrrrrrrrGGGGGGrrrGrGr" minDur="2" maxDur="80" />
    <phase duration="3" state="rrrrrrrrryyyyyyrrrrrrrrrrrryyyyyyrrryryr" />
    <phase duration="2" state="rrrrrrrrrrrrrrrGGGrrrrrrrrrrrrrrrGGGrrrr" minDur="2" maxDur="80" />
    <phase duration="3" state="rrrrrrrrrrrrrrryyyrrrrrrrrrrrrrrryyyrrrr" />
    <phase duration="2" state="rrrrrrGGGrrrrrrrrrrrrrrrGGGrrrrrrrrrrrrr" minDur="2" maxDur="80" />
    <phase duration="3" state="rrrrrryyyrrrrrrrrrrrrrrrGGGrrrrrrrrrrrrr" />
    <phase duration="2" state="rrrrrrrrrrrrrrrrrrGGGGGGGGGrrrrrrrrrrGrr" minDur="2" maxDur="80" />
    <phase duration="3" state="rrrrrrrrrrrrrrrrrrGGGGGGGGGrrrrrrrrrryrr" />
    <phase duration="6" state="rrrrrrrrrrrrrrrrrrGGGGGGGGGrrrrrrrrrrrrr" minDur="2" maxDur="80" />
    <phase duration="3" state="rrrrrrrrrrrrrrrrrrGGGGGGyyyrrrrrrrrrrrrr" />
    <phase duration="2" state="GGGGGGrrrrrrrrrrrrGGGGGGrrrrrrrrrrrrrrrG" minDur="2" maxDur="80" />
    <phase duration="3" state="GGGGGGrrrrrrrrrrrrGGGGGGrrrrrrrrrrrrrrry" />
    <phase duration="53" state="GGGGGGrrrrrrrrrrrrGGGGGGrrrrrrrrrrrrrrrr" minDur="2" maxDur="80" />
    <phase duration="3" state="yyyyyyrrrrrrrrrrrryyyyyyrrrrrrrrrrrrrrrr" />
  </tlLogic>
  <tlLogic id="cluster_1984576776_3478559735_3478559736_3537422682_#1more" type="actuated" programID="1418903639#0_1" offset="0">
    <phase duration="2" state="rrrrrrrrrGGGGGGrrrrrrrrrrrrGGGGGGrrrGrGr" minDur="2" maxDur="80" />
    <phase duration="3" state="rrrrrrrrryyyyyyrrrrrrrrrrrryyyyyyrrryryr" />
    <phase duration="2" state="rrrrrrrrrrrrrrrGGGrrrrrrrrrrrrrrrGGGrrrr" minDur="2" maxDur="80" />
    <phase duration="3" state="rrrrrrrrrrrrrrryyyrrrrrrrrrrrrrrryyyrrrr" />
    <phase duration="2" state="rrrrrrGGGrrrrrrrrrrrrrrrGGGrrrrrrrrrrrrr" minDur="2" maxDur="80" />
    <phase duration="3" state="rrrrrryyyrrrrrrrrrrrrrrryyyrrrrrrrrrrrrr" />
    <phase duration="2" state="GGGGGGrrrrrrrrrrrrGGGGGGrrrrrrrrrrrrrGrG" minDur="2" maxDur="80" />
    <phase duration="3" state="GGGGGGrrrrrrrrrrrrGGGGGGrrrrrrrrrrrrryry" />
    <phase duration="67" state="GGGGGGrrrrrrrrrrrrGGGGGGrrrrrrrrrrrrrrrr" minDur="2" maxDur="80" />
    <phase duration="3" state="yyyyyyrrrrrrrrrrrryyyyyyrrrrrrrrrrrrrrrr" />
  </tlLogic>
  <tlLogic id="cluster_1984576776_3478559735_3478559736_3537422682_#1more" type="actuated" programID="1418903639#0_2" offset="0">
    <phase duration="2" state="rrrrrrrrrGGGGGGrrrrrrrrrrrrGGGGGGrrrGrGr" minDur="2" maxDur="80" />
    <phase duration="3" state="rrrrrrrrryyyyyyrrrrrrrrrrrryyyyyyrrryryr" />
    <phase duration="2" state="rrrrrrrrrrrrrrrGGGrrrrrrrrrrrrrrrGGGrrrr" minDur="2" maxDur="80" />
    <phase duration="3" state="rrrrrrrrrrrrrrryyyrrrrrrrrrrrrrrryyyrrrr" />
    <phase duration="2" state="rrrrrrGGGrrrrrrrrrrrrrrrGGGrrrrrrrrrrrrr" minDur="2" maxDur="80" />
    <phase duration="3" state="rrrrrryyyrrrrrrrrrrrrrrryyyrrrrrrrrrrrrr" />
    <phase duration="2" state="GGGGGGrrrrrrrrrrrrGGGGGGrrrrrrrrrrrrrGrG" minDur="2" maxDur="80" />
    <phase duration="3" state="GGGGGGrrrrrrrrrrrrGGGGGGrrrrrrrrrrrrryry" />
    <phase duration="67" state="GGGGGGrrrrrrrrrrrrGGGGGGrrrrrrrrrrrrrrrr" minDur="2" maxDur="80" />
    <phase duration="3" state="yyyyyyrrrrrrrrrrrryyyyyyrrrrrrrrrrrrrrrr" />
  </tlLogic>
  <tlLogic id="cluster_1984576776_3478559735_3478559736_3537422682_#1more" type="actuated" programID="1418903639#0_3" offset="0">
    <phase duration="2" state="rrrrrrrrrGGGGGGrrrrrrrrrrrrGGGGGGrrrGrGr" minDur="2" maxDur="80" />
    <phase duration="3" state="rrrrrrrrryyyyyyrrrrrrrrrrrryyyyyyrrryryr" />
    <phase duration="2" state="rrrrrrrrrrrrrrrGGGrrrrrrrrrrrrrrrGGGrrrr" minDur="2" maxDur="80" />
    <phase duration="3" state="rrrrrrrrrrrrrrryyyrrrrrrrrrrrrrrryyyrrrr" />
    <phase duration="2" state="rrrrrrGGGrrrrrrrrrrrrrrrGGGrrrrrrrrrrrrr" minDur="2" maxDur="80" />
    <phase duration="3" state="rrrrrryyyrrrrrrrrrrrrrrryyyrrrrrrrrrrrrr" />
    <phase duration="2" state="GGGGGGrrrrrrrrrrrrGGGGGGrrrrrrrrrrrrrGrG" minDur="2" maxDur="80" />
    <phase duration="3" state="GGGGGGrrrrrrrrrrrrGGGGGGrrrrrrrrrrrrryry" />
    <phase duration="67" state="GGGGGGrrrrrrrrrrrrGGGGGGrrrrrrrrrrrrrrrr" minDur="2" maxDur="80" />
    <phase duration="3" state="yyyyyyrrrrrrrrrrrryyyyyyrrrrrrrrrrrrrrrr" />
  </tlLogic>
  <tlLogic id="cluster_1984576776_3478559735_3478559736_3537422682_#1more" type="actuated" programID="-417034082#1_2" offset="0">
    <phase duration="2" state="rrrrrrrrrGGGGGGrrrrrrrrrrrrGGGGGGrrrGrGr" minDur="2" maxDur="80" />
    <phase duration="3" state="rrrrrrrrryyyyyyrrrrrrrrrrrryyyyyyrrryryr" />
    <phase duration="2" state="rrrrrrrrrrrrrrrGGGrrrrrrrrrrrrrrrGGGrrrr" minDur="2" maxDur="80" />
    <phase duration="3" state="rrrrrrrrrrrrrrryyyrrrrrrrrrrrrrrryyyrrrr" />
    <phase duration="2" state="rrrrrrGGGrrrrrrrrrrrrrrrGGGrrrrrrrrrrrrr" minDur="2" maxDur="80" />
    <phase duration="3" state="rrrrrryyyrrrrrrrrrrrrrrrGGGrrrrrrrrrrrrr" />
    <phase duration="2" state="rrrrrrrrrrrrrrrrrrGGGGGGGGGrrrrrrrrrrGrr" minDur="2" maxDur="80" />
    <phase duration="3" state="rrrrrrrrrrrrrrrrrrGGGGGGGGGrrrrrrrrrryrr" />
    <phase duration="6" state="rrrrrrrrrrrrrrrrrrGGGGGGGGGrrrrrrrrrrrrr" minDur="2" maxDur="80" />
    <phase duration="3" state="rrrrrrrrrrrrrrrrrrGGGGGGyyyrrrrrrrrrrrrr" />
    <phase duration="2" state="GGGGGGrrrrrrrrrrrrGGGGGGrrrrrrrrrrrrrrrG" minDur="2" maxDur="80" />
    <phase duration="3" state="GGGGGGrrrrrrrrrrrrGGGGGGrrrrrrrrrrrrrrry" />
    <phase duration="53" state="GGGGGGrrrrrrrrrrrrGGGGGGrrrrrrrrrrrrrrrr" minDur="2" maxDur="80" />
    <phase duration="3" state="yyyyyyrrrrrrrrrrrryyyyyyrrrrrrrrrrrrrrrr" />
  </tlLogic>
  <tlLogic id="cluster_1984576776_3478559735_3478559736_3537422682_#1more" type="actuated" programID="-417034082#1_3" offset="0">
    <phase duration="2" state="rrrrrrrrrGGGGGGrrrrrrrrrrrrGGGGGGrrrGrGr" minDur="2" maxDur="80" />
    <phase duration="3" state="rrrrrrrrryyyyyyrrrrrrrrrrrryyyyyyrrryryr" />
    <phase duration="2" state="rrrrrrrrrrrrrrrGGGrrrrrrrrrrrrrrrGGGrrrr" minDur="2" maxDur="80" />
    <phase duration="3" state="rrrrrrrrrrrrrrryyyrrrrrrrrrrrrrrryyyrrrr" />
    <phase duration="2" state="rrrrrrGGGrrrrrrrrrrrrrrrGGGrrrrrrrrrrrrr" minDur="2" maxDur="80" />
    <phase duration="3" state="rrrrrryyyrrrrrrrrrrrrrrrGGGrrrrrrrrrrrrr" />
    <phase duration="2" state="rrrrrrrrrrrrrrrrrrGGGGGGGGGrrrrrrrrrrGrr" minDur="2" maxDur="80" />
    <phase duration="3" state="rrrrrrrrrrrrrrrrrrGGGGGGGGGrrrrrrrrrryrr" />
    <phase duration="6" state="rrrrrrrrrrrrrrrrrrGGGGGGGGGrrrrrrrrrrrrr" minDur="2" maxDur="80" />
    <phase duration="3" state="rrrrrrrrrrrrrrrrrrGGGGGGyyyrrrrrrrrrrrrr" />
    <phase duration="2" state="GGGGGGrrrrrrrrrrrrGGGGGGrrrrrrrrrrrrrrrG" minDur="2" maxDur="80" />
    <phase duration="3" state="GGGGGGrrrrrrrrrrrrGGGGGGrrrrrrrrrrrrrrry" />
    <phase duration="53" state="GGGGGGrrrrrrrrrrrrGGGGGGrrrrrrrrrrrrrrrr" minDur="2" maxDur="80" />
    <phase duration="3" state="yyyyyyrrrrrrrrrrrryyyyyyrrrrrrrrrrrrrrrr" />
  </tlLogic>
  <tlLogic id="cluster_1984576776_3478559735_3478559736_3537422682_#1more" type="actuated" programID="-417034082#1_1" offset="0">
    <phase duration="2" state="rrrrrrrrrGGGGGGrrrrrrrrrrrrGGGGGGrrrGrGr" minDur="2" maxDur="80" />
    <phase duration="3" state="rrrrrrrrryyyyyyrrrrrrrrrrrryyyyyyrrryryr" />
    <phase duration="2" state="rrrrrrrrrrrrrrrGGGrrrrrrrrrrrrrrrGGGrrrr" minDur="2" maxDur="80" />
    <phase duration="3" state="rrrrrrrrrrrrrrryyyrrrrrrrrrrrrrrryyyrrrr" />
    <phase duration="2" state="rrrrrrGGGrrrrrrrrrrrrrrrGGGrrrrrrrrrrrrr" minDur="2" maxDur="80" />
    <phase duration="3" state="rrrrrryyyrrrrrrrrrrrrrrrGGGrrrrrrrrrrrrr" />
    <phase duration="2" state="rrrrrrrrrrrrrrrrrrGGGGGGGGGrrrrrrrrrrGrr" minDur="2" maxDur="80" />
    <phase duration="3" state="rrrrrrrrrrrrrrrrrrGGGGGGGGGrrrrrrrrrryrr" />
    <phase duration="6" state="rrrrrrrrrrrrrrrrrrGGGGGGGGGrrrrrrrrrrrrr" minDur="2" maxDur="80" />
    <phase duration="3" state="rrrrrrrrrrrrrrrrrrGGGGGGyyyrrrrrrrrrrrrr" />
    <phase duration="2" state="GGGGGGrrrrrrrrrrrrGGGGGGrrrrrrrrrrrrrrrG" minDur="2" maxDur="80" />
    <phase duration="3" state="GGGGGGrrrrrrrrrrrrGGGGGGrrrrrrrrrrrrrrry" />
    <phase duration="53" state="GGGGGGrrrrrrrrrrrrGGGGGGrrrrrrrrrrrrrrrr" minDur="2" maxDur="80" />
    <phase duration="3" state="yyyyyyrrrrrrrrrrrryyyyyyrrrrrrrrrrrrrrrr" />
  </tlLogic>
  <tlLogic id="cluster_1984576776_3478559735_3478559736_3537422682_#1more" type="actuated" programID="-416901230#1_1" offset="0">
    <phase duration="2" state="rrrrrrrrrrrrrrrrrrrrrrrrrrrGGGGGGGGGrrGr" minDur="2" maxDur="80" />
    <phase duration="3" state="rrrrrrrrrrrrrrrrrrrrrrrrrrryyyyyyyyyrryr" />
    <phase duration="2" state="rrrrrrrrrGGGGGGGGGrrrrrrrrrrrrrrrrrrGrrr" minDur="2" maxDur="80" />
    <phase duration="3" state="rrrrrrrrryyyyyyyyyrrrrrrrrrrrrrrrrrryrrr" />
    <phase duration="2" state="GGGGGGrrrrrrrrrrrrGGGGGGrrrrrrrrrrrrrGrG" minDur="2" maxDur="80" />
    <phase duration="3" state="GGGGGGrrrrrrrrrrrrGGGGGGrrrrrrrrrrrrryry" />
    <phase duration="53" state="GGGGGGrrrrrrrrrrrrGGGGGGrrrrrrrrrrrrrrrr" minDur="2" maxDur="80" />
    <phase duration="3" state="yyyyyyrrrrrrrrrrrrGGGGGGrrrrrrrrrrrrrrrr" />
    <phase duration="11" state="rrrrrrrrrrrrrrrrrrGGGGGGGGGrrrrrrrrrrrrr" minDur="2" maxDur="80" />
    <phase duration="3" state="rrrrrrrrrrrrrrrrrryyyyyyGGGrrrrrrrrrrrrr" />
    <phase duration="2" state="rrrrrrGGGrrrrrrrrrrrrrrrGGGrrrrrrrrrrrrr" minDur="2" maxDur="80" />
    <phase duration="3" state="rrrrrryyyrrrrrrrrrrrrrrryyyrrrrrrrrrrrrr" />
  </tlLogic>
  <tlLogic id="cluster_1984576776_3478559735_3478559736_3537422682_#1more" type="actuated" programID="-416901230#1_2" offset="0">
    <phase duration="2" state="rrrrrrrrrrrrrrrrrrrrrrrrrrrGGGGGGGGGrrGr" minDur="2" maxDur="80" />
    <phase duration="3" state="rrrrrrrrrrrrrrrrrrrrrrrrrrryyyyyyyyyrryr" />
    <phase duration="2" state="rrrrrrrrrGGGGGGGGGrrrrrrrrrrrrrrrrrrGrrr" minDur="2" maxDur="80" />
    <phase duration="3" state="rrrrrrrrryyyyyyyyyrrrrrrrrrrrrrrrrrryrrr" />
    <phase duration="2" state="GGGGGGrrrrrrrrrrrrGGGGGGrrrrrrrrrrrrrGrG" minDur="2" maxDur="80" />
    <phase duration="3" state="GGGGGGrrrrrrrrrrrrGGGGGGrrrrrrrrrrrrryry" />
    <phase duration="53" state="GGGGGGrrrrrrrrrrrrGGGGGGrrrrrrrrrrrrrrrr" minDur="2" maxDur="80" />
    <phase duration="3" state="yyyyyyrrrrrrrrrrrrGGGGGGrrrrrrrrrrrrrrrr" />
    <phase duration="11" state="rrrrrrrrrrrrrrrrrrGGGGGGGGGrrrrrrrrrrrrr" minDur="2" maxDur="80" />
    <phase duration="3" state="rrrrrrrrrrrrrrrrrryyyyyyGGGrrrrrrrrrrrrr" />
    <phase duration="2" state="rrrrrrGGGrrrrrrrrrrrrrrrGGGrrrrrrrrrrrrr" minDur="2" maxDur="80" />
    <phase duration="3" state="rrrrrryyyrrrrrrrrrrrrrrryyyrrrrrrrrrrrrr" />
  </tlLogic>
  <tlLogic id="cluster_1984576776_3478559735_3478559736_3537422682_#1more" type="actuated" programID="-416901230#1_3" offset="0">
    <phase duration="2" state="rrrrrrrrrrrrrrrrrrrrrrrrrrrGGGGGGGGGrrGr" minDur="2" maxDur="80" />
    <phase duration="3" state="rrrrrrrrrrrrrrrrrrrrrrrrrrryyyyyyyyyrryr" />
    <phase duration="2" state="rrrrrrrrrGGGGGGGGGrrrrrrrrrrrrrrrrrrGrrr" minDur="2" maxDur="80" />
    <phase duration="3" state="rrrrrrrrryyyyyyyyyrrrrrrrrrrrrrrrrrryrrr" />
    <phase duration="2" state="GGGGGGrrrrrrrrrrrrGGGGGGrrrrrrrrrrrrrGrG" minDur="2" maxDur="80" />
    <phase duration="3" state="GGGGGGrrrrrrrrrrrrGGGGGGrrrrrrrrrrrrryry" />
    <phase duration="53" state="GGGGGGrrrrrrrrrrrrGGGGGGrrrrrrrrrrrrrrrr" minDur="2" maxDur="80" />
    <phase duration="3" state="yyyyyyrrrrrrrrrrrrGGGGGGrrrrrrrrrrrrrrrr" />
    <phase duration="11" state="rrrrrrrrrrrrrrrrrrGGGGGGGGGrrrrrrrrrrrrr" minDur="2" maxDur="80" />
    <phase duration="3" state="rrrrrrrrrrrrrrrrrryyyyyyGGGrrrrrrrrrrrrr" />
    <phase duration="2" state="rrrrrrGGGrrrrrrrrrrrrrrrGGGrrrrrrrrrrrrr" minDur="2" maxDur="80" />
    <phase duration="3" state="rrrrrryyyrrrrrrrrrrrrrrryyyrrrrrrrrrrrrr" />
  </tlLogic>
  <tlLogic id="cluster_1984576776_3478559735_3478559736_3537422682_#1more" type="actuated" programID="-416901209#1_2" offset="0">
    <phase duration="2" state="rrrrrrrrrGGGGGGrrrrrrrrrrrrGGGGGGrrrGrGr" minDur="2" maxDur="80" />
    <phase duration="3" state="rrrrrrrrryyyyyyrrrrrrrrrrrryyyyyyrrryryr" />
    <phase duration="2" state="rrrrrrrrrrrrrrrGGGrrrrrrrrrrrrrrrGGGrrrr" minDur="2" maxDur="80" />
    <phase duration="3" state="rrrrrrrrrrrrrrryyyrrrrrrrrrrrrrrryyyrrrr" />
    <phase duration="2" state="rrrrrrGGGrrrrrrrrrrrrrrrGGGrrrrrrrrrrrrr" minDur="2" maxDur="80" />
    <phase duration="3" state="rrrrrryyyrrrrrrrrrrrrrrrGGGrrrrrrrrrrrrr" />
    <phase duration="2" state="rrrrrrrrrrrrrrrrrrGGGGGGGGGrrrrrrrrrrGrr" minDur="2" maxDur="80" />
    <phase duration="3" state="rrrrrrrrrrrrrrrrrrGGGGGGGGGrrrrrrrrrryrr" />
    <phase duration="6" state="rrrrrrrrrrrrrrrrrrGGGGGGGGGrrrrrrrrrrrrr" minDur="2" maxDur="80" />
    <phase duration="3" state="rrrrrrrrrrrrrrrrrrGGGGGGyyyrrrrrrrrrrrrr" />
    <phase duration="2" state="GGGGGGrrrrrrrrrrrrGGGGGGrrrrrrrrrrrrrrrG" minDur="2" maxDur="80" />
    <phase duration="3" state="GGGGGGrrrrrrrrrrrrGGGGGGrrrrrrrrrrrrrrry" />
    <phase duration="53" state="GGGGGGrrrrrrrrrrrrGGGGGGrrrrrrrrrrrrrrrr" minDur="2" maxDur="80" />
    <phase duration="3" state="yyyyyyrrrrrrrrrrrryyyyyyrrrrrrrrrrrrrrrr" />
  </tlLogic>
  <tlLogic id="cluster_1984576776_3478559735_3478559736_3537422682_#1more" type="actuated" programID="-416901209#1_3" offset="0">
    <phase duration="2" state="rrrrrrrrrGGGGGGrrrrrrrrrrrrGGGGGGrrrGrGr" minDur="2" maxDur="80" />
    <phase duration="3" state="rrrrrrrrryyyyyyrrrrrrrrrrrryyyyyyrrryryr" />
    <phase duration="2" state="rrrrrrrrrrrrrrrGGGrrrrrrrrrrrrrrrGGGrrrr" minDur="2" maxDur="80" />
    <phase duration="3" state="rrrrrrrrrrrrrrryyyrrrrrrrrrrrrrrryyyrrrr" />
    <phase duration="2" state="rrrrrrGGGrrrrrrrrrrrrrrrGGGrrrrrrrrrrrrr" minDur="2" maxDur="80" />
    <phase duration="3" state="rrrrrryyyrrrrrrrrrrrrrrrGGGrrrrrrrrrrrrr" />
    <phase duration="2" state="rrrrrrrrrrrrrrrrrrGGGGGGGGGrrrrrrrrrrGrr" minDur="2" maxDur="80" />
    <phase duration="3" state="rrrrrrrrrrrrrrrrrrGGGGGGGGGrrrrrrrrrryrr" />
    <phase duration="6" state="rrrrrrrrrrrrrrrrrrGGGGGGGGGrrrrrrrrrrrrr" minDur="2" maxDur="80" />
    <phase duration="3" state="rrrrrrrrrrrrrrrrrrGGGGGGyyyrrrrrrrrrrrrr" />
    <phase duration="2" state="GGGGGGrrrrrrrrrrrrGGGGGGrrrrrrrrrrrrrrrG" minDur="2" maxDur="80" />
    <phase duration="3" state="GGGGGGrrrrrrrrrrrrGGGGGGrrrrrrrrrrrrrrry" />
    <phase duration="53" state="GGGGGGrrrrrrrrrrrrGGGGGGrrrrrrrrrrrrrrrr" minDur="2" maxDur="80" />
    <phase duration="3" state="yyyyyyrrrrrrrrrrrryyyyyyrrrrrrrrrrrrrrrr" />
  </tlLogic>
  <tlLogic id="cluster_1984576776_3478559735_3478559736_3537422682_#1more" type="actuated" programID="-416901209#1_1" offset="0">
    <phase duration="2" state="rrrrrrrrrGGGGGGrrrrrrrrrrrrGGGGGGrrrGrGr" minDur="2" maxDur="80" />
    <phase duration="3" state="rrrrrrrrryyyyyyrrrrrrrrrrrryyyyyyrrryryr" />
    <phase duration="2" state="rrrrrrrrrrrrrrrGGGrrrrrrrrrrrrrrrGGGrrrr" minDur="2" maxDur="80" />
    <phase duration="3" state="rrrrrrrrrrrrrrryyyrrrrrrrrrrrrrrryyyrrrr" />
    <phase duration="2" state="rrrrrrGGGrrrrrrrrrrrrrrrGGGrrrrrrrrrrrrr" minDur="2" maxDur="80" />
    <phase duration="3" state="rrrrrryyyrrrrrrrrrrrrrrrGGGrrrrrrrrrrrrr" />
    <phase duration="2" state="rrrrrrrrrrrrrrrrrrGGGGGGGGGrrrrrrrrrrGrr" minDur="2" maxDur="80" />
    <phase duration="3" state="rrrrrrrrrrrrrrrrrrGGGGGGGGGrrrrrrrrrryrr" />
    <phase duration="6" state="rrrrrrrrrrrrrrrrrrGGGGGGGGGrrrrrrrrrrrrr" minDur="2" maxDur="80" />
    <phase duration="3" state="rrrrrrrrrrrrrrrrrrGGGGGGyyyrrrrrrrrrrrrr" />
    <phase duration="2" state="GGGGGGrrrrrrrrrrrrGGGGGGrrrrrrrrrrrrrrrG" minDur="2" maxDur="80" />
    <phase duration="3" state="GGGGGGrrrrrrrrrrrrGGGGGGrrrrrrrrrrrrrrry" />
    <phase duration="53" state="GGGGGGrrrrrrrrrrrrGGGGGGrrrrrrrrrrrrrrrr" minDur="2" maxDur="80" />
    <phase duration="3" state="yyyyyyrrrrrrrrrrrryyyyyyrrrrrrrrrrrrrrrr" />
  </tlLogic>
</additional>