<?xml version="1.0" encoding="UTF-8"?>

<!-- generated on 2026-02-14 18:43:21 by Eclipse SUMO netedit Version 1.24.0
<neteditConfiguration xmlns:xsi="http://www.w3.org/2001/XMLSchema-instance" xsi:noNamespaceSchemaLocation="http://sumo.dlr.de/xsd/neteditConfiguration.xsd">

    <input>
        <sumocfg-file value="/home/zihao/University of Michigan Dropbox/Zihao Wang/Projects/trip2sim/sumo_configs/san_jose/osm.sumocfg"/>
        <additional-files value="/home/zihao/University of Michigan Dropbox/Zihao Wang/Projects/trip2sim/sumo_configs/san_jose/osm.poly.xml.gz,/home/zihao/University of Michigan Dropbox/Zihao Wang/Projects/trip2sim/sumo_configs/san_jose/osm.tls.xml"/>
        <sumo-net-file value="/home/zihao/University of Michigan Dropbox/Zihao Wang/Projects/trip2sim/sumo_configs/san_jose/osm.net.xml"/>
    </input>

    <output>
        <output-file value="/home/zihao/University of Michigan Dropbox/Zihao Wang/Projects/trip2sim/sumo_configs/san_jose/osm.net.xml"/>
        <output.street-names value="true"/>
    </output>

    <processing>
        <geometry.min-radius.fix.railways value="false"/>
        <geometry.avoid-overlap value="false"/>
        <geometry.max-grade.fix value="false"/>
        <offset.disable-normalization value="true"/>
        <lefthand value="0"/>
    </processing>

    <junctions>
        <no-internal-links value="false"/>
        <no-turnarounds value="true"/>
        <junctions.corner-detail value="5"/>
        <junctions.limit-turn-speed value="5.50"/>
        <rectangular-lane-cut value="0"/>
    </junctions>

    <pedestrian>
        <walkingareas value="0"/>
    </pedestrian>

    <netedit>
        <ignore.routeelements value="false"/>
    </netedit>

</neteditConfiguration>
-->

<net version="1.20" junctionCornerDetail="5" limitTurnSpeed="5.50" avoidOverlap="0" xmlns:xsi="http://www.w3.org/2001/XMLSchema-instance" xsi:noNamespaceSchemaLocation="http://sumo.dlr.de/xsd/net_file.xsd">

    <location netOffset="13569265.44,-4485757.02" convBoundary="0.00,0.00,576.61,430.10" origBoundary="-121.894792,37.333944,-121.889606,37.337016" projParameter="+proj=merc +a=6378137 +b=6378137 +lat_ts=0.0 +lon_0=0.0 +x_0=0.0 +y_0=0 +k=1.0 +units=m +nadgrids=@null +wktext +no_defs"/>

    <type id="highway.cycleway" priority="1" numLanes="1" speed="5.56" allow="bicycle" oneway="0" width="2.00"/>
    <type id="highway.footway" priority="1" numLanes="1" speed="2.78" allow="pedestrian" oneway="1" width="2.00"/>
    <type id="highway.pedestrian" priority="1" numLanes="1" speed="2.78" allow="pedestrian" oneway="1" width="2.00"/>
    <type id="highway.primary" priority="12" numLanes="2" speed="13.89" disallow="pedestrian tram rail_urban rail rail_electric rail_fast ship container cable_car subway aircraft wheelchair scooter drone" oneway="0" width="3.66" sidewalkWidth="3.00"/>
    <type id="highway.residential" priority="3" numLanes="1" speed="13.89" disallow="pedestrian tram rail_urban rail rail_electric rail_fast ship container cable_car subway aircraft wheelchair scooter drone" oneway="0" sidewalkWidth="2.00"/>
    <type id="highway.secondary" priority="11" numLanes="1" speed="13.89" disallow="pedestrian tram rail_urban rail rail_electric rail_fast ship container cable_car subway aircraft wheelchair scooter drone" oneway="0" width="3.66" sidewalkWidth="3.00"/>
    <type id="highway.service" priority="1" numLanes="1" speed="5.56" allow="pedestrian delivery bicycle" oneway="0"/>
    <type id="highway.steps" priority="1" numLanes="1" speed="1.39" allow="pedestrian" oneway="1" width="2.00"/>
    <type id="highway.tertiary" priority="10" numLanes="1" speed="13.89" disallow="pedestrian tram rail_urban rail rail_electric rail_fast ship container cable_car subway aircraft wheelchair scooter drone" oneway="0" sidewalkWidth="3.00"/>
    <type id="railway.light_rail" priority="19" numLanes="1" speed="27.78" allow="rail_urban" oneway="1"/>

    <edge id=":10102739535_0" function="internal">
        <lane id=":10102739535_0_0" index="0" allow="pedestrian delivery bicycle" speed="3.65" length="4.67" shape="242.57,-0.43 243.88,-1.05 244.77,-0.97 245.25,-0.22 245.31,1.22"/>
    </edge>
    <edge id=":10735065971_0" function="internal">
        <lane id=":10735065971_0_0" index="0" allow="pedestrian" speed="4.84" length="4.53" width="2.00" shape="273.37,70.21 272.33,69.82 271.36,69.91 270.46,70.51 269.63,71.59"/>
    </edge>
    <edge id=":10735065971_1" function="internal">
        <lane id=":10735065971_1_0" index="0" allow="pedestrian" speed="7.99" length="14.02" width="2.00" shape="273.37,70.21 269.48,67.43 267.15,64.68 266.37,61.96 267.16,59.27"/>
    </edge>
    <edge id=":10735065971_2" function="internal">
        <lane id=":10735065971_2_0" index="0" allow="pedestrian delivery bicycle" speed="3.65" length="4.67" shape="273.37,70.21 272.75,68.91 272.82,68.02 273.57,67.54 275.01,67.46"/>
    </edge>
    <edge id=":10735065971_3" function="internal">
        <lane id=":10735065971_3_0" index="0" allow="pedestrian" speed="4.69" length="4.54" shape="274.41,63.51 273.86,64.75 273.78,65.83 274.16,66.73 275.01,67.46"/>
    </edge>
    <edge id=":10735065971_4" function="internal">
        <lane id=":10735065971_4_0" index="0" allow="pedestrian" speed="13.89" length="9.39" width="2.00" shape="274.41,63.51 269.63,71.59"/>
    </edge>
    <edge id=":10735065971_5" function="internal">
        <lane id=":10735065971_5_0" index="0" allow="pedestrian" speed="13.89" length="9.31" width="2.00" shape="262.42,67.28 267.16,59.27"/>
    </edge>
    <edge id=":10735065971_6" function="internal">
        <lane id=":10735065971_6_0" index="0" allow="pedestrian" speed="7.86" length="9.28" shape="262.42,67.28 264.42,65.26 267.19,64.62 270.72,65.36"/>
    </edge>
    <edge id=":10735065971_7" function="internal">
        <lane id=":10735065971_7_0" index="0" allow="pedestrian" speed="7.86" length="4.79" shape="270.72,65.36 275.01,67.46"/>
    </edge>
    <edge id=":10735065971_w0" function="walkingarea">
        <lane id=":10735065971_w0_0" index="0" allow="pedestrian" speed="2.78" length="5.69" width="3.20" shape="268.78,71.08 270.49,72.10 272.55,71.58 274.19,68.84 275.83,66.09 275.27,64.01 273.55,63.00"/>
    </edge>
    <edge id=":10735065971_w1" function="walkingarea">
        <lane id=":10735065971_w1_0" index="0" allow="pedestrian" speed="2.78" length="9.31" width="2.00" shape="268.02,59.77 266.29,58.76 261.57,66.77 263.28,67.79"/>
    </edge>
    <edge id=":10735065972_0" function="internal">
        <lane id=":10735065972_0_0" index="0" allow="pedestrian delivery bicycle" speed="5.56" length="5.00" shape="278.81,73.47 274.52,70.90"/>
    </edge>
    <edge id=":10735065972_1" function="internal">
        <lane id=":10735065972_1_0" index="0" allow="pedestrian delivery bicycle" speed="3.65" length="1.44" shape="278.81,73.47 278.19,72.16"/>
    </edge>
    <edge id=":10735065972_4" function="internal">
        <lane id=":10735065972_4_0" index="0" allow="pedestrian delivery bicycle" speed="3.65" length="3.24" shape="278.19,72.16 278.26,71.27 279.02,70.79 280.46,70.72"/>
    </edge>
    <edge id=":10735065972_2" function="internal">
        <lane id=":10735065972_2_0" index="0" allow="pedestrian delivery bicycle" speed="5.56" length="5.01" shape="276.16,68.15 280.46,70.72"/>
    </edge>
    <edge id=":10735065972_3" function="internal">
        <lane id=":10735065972_3_0" index="0" allow="pedestrian delivery bicycle" speed="3.65" length="1.44" shape="276.16,68.15 276.78,69.45"/>
    </edge>
    <edge id=":10735065972_5" function="internal">
        <lane id=":10735065972_5_0" index="0" allow="pedestrian delivery bicycle" speed="3.65" length="3.23" shape="276.78,69.45 276.71,70.34 275.96,70.83 274.52,70.90"/>
    </edge>
    <edge id=":10735065972_w0" function="walkingarea">
        <lane id=":10735065972_w0_0" index="0" allow="pedestrian" speed="2.78" length="5.39" width="6.40" shape="277.98,74.84 281.29,69.35 280.64,68.80 280.49,68.48 280.46,68.12 280.55,67.72 280.76,67.29 279.04,66.26 278.47,66.89 278.14,67.03 277.78,67.06 277.40,66.98 276.98,66.78 273.70,72.27 274.32,72.84 274.47,73.17 274.50,73.53 274.41,73.91 274.21,74.32 275.92,75.36 276.47,74.75 276.79,74.60 277.14,74.57 277.51,74.63"/>
    </edge>
    <edge id=":10735065974_0" function="internal">
        <lane id=":10735065974_0_0" index="0" allow="pedestrian delivery bicycle" speed="3.65" length="4.67" shape="303.34,82.96 304.03,84.23 304.00,85.12 303.27,85.64 301.84,85.78"/>
    </edge>
    <edge id=":12556328274_0" function="internal">
        <lane id=":12556328274_0_0" index="0" allow="pedestrian" speed="13.89" length="8.71" width="3.00" shape="209.56,387.62 208.78,390.06 209.09,392.01 209.39,393.95 208.61,396.39"/>
        <lane id=":12556328274_0_1" index="1" disallow="pedestrian tram rail_urban rail rail_electric rail_fast ship container cable_car subway aircraft wheelchair scooter drone" speed="13.89" length="8.71" width="3.66" shape="206.69,385.93 205.91,388.36 206.22,390.31 206.53,392.25 205.75,394.69"/>
        <lane id=":12556328274_0_2" index="2" disallow="pedestrian tram rail_urban rail rail_electric rail_fast ship container cable_car subway aircraft wheelchair scooter drone" speed="13.89" length="8.71" width="3.66" shape="206.69,385.93 202.60,392.81"/>
    </edge>
    <edge id=":12556328274_3" function="internal">
        <lane id=":12556328274_3_0" index="0" allow="pedestrian" speed="13.89" length="7.99" width="3.00" shape="190.31,385.50 194.38,378.64"/>
        <lane id=":12556328274_3_1" index="1" disallow="pedestrian tram rail_urban rail rail_electric rail_fast ship container cable_car subway aircraft wheelchair scooter drone" speed="13.89" length="7.99" width="3.66" shape="193.17,387.20 197.24,380.33"/>
        <lane id=":12556328274_3_2" index="2" disallow="pedestrian tram rail_urban rail rail_electric rail_fast ship container cable_car subway aircraft wheelchair scooter drone" speed="13.89" length="7.99" width="3.66" shape="196.31,389.07 200.39,382.20"/>
    </edge>
    <edge id=":12556328274_w0" function="walkingarea">
        <lane id=":12556328274_w0_0" index="0" allow="pedestrian" speed="2.78" length="8.82" width="3.00" shape="207.32,395.62 209.90,397.16 210.60,395.45 210.65,394.04 210.38,392.77 210.10,391.51 210.15,390.09 210.85,388.39 208.27,386.86 207.57,388.56 207.52,389.97 207.80,391.24 208.07,392.51 208.02,393.92"/>
    </edge>
    <edge id=":12556328274_w1" function="walkingarea">
        <lane id=":12556328274_w1_0" index="0" allow="pedestrian" speed="2.78" length="7.98" width="3.00" shape="195.67,379.40 193.09,377.87 189.02,384.73 191.59,386.26"/>
    </edge>
    <edge id=":12556328275_0" function="internal">
        <lane id=":12556328275_0_0" index="0" allow="pedestrian" speed="13.89" length="7.95" width="3.00" shape="202.37,406.88 198.34,413.70"/>
        <lane id=":12556328275_0_1" index="1" disallow="pedestrian tram rail_urban rail rail_electric rail_fast ship container cable_car subway aircraft wheelchair scooter drone" speed="13.89" length="7.95" width="3.66" shape="199.51,405.17 195.47,412.01"/>
        <lane id=":12556328275_0_2" index="2" disallow="pedestrian tram rail_urban rail rail_electric rail_fast ship container cable_car subway aircraft wheelchair scooter drone" speed="13.89" length="7.95" width="3.66" shape="196.36,403.30 192.31,410.16"/>
    </edge>
    <edge id=":12556328275_3" function="internal">
        <lane id=":12556328275_3_0" index="0" allow="pedestrian" speed="13.89" length="8.38" width="3.00" shape="176.81,401.07 178.57,399.20 180.43,398.52 182.29,397.85 184.07,395.98"/>
        <lane id=":12556328275_3_1" index="1" disallow="pedestrian tram rail_urban rail rail_electric rail_fast ship container cable_car subway aircraft wheelchair scooter drone" speed="13.89" length="8.38" width="3.66" shape="182.84,404.61 186.93,397.69"/>
        <lane id=":12556328275_3_2" index="2" disallow="pedestrian tram rail_urban rail rail_electric rail_fast ship container cable_car subway aircraft wheelchair scooter drone" speed="13.89" length="8.38" width="3.66" shape="185.99,406.46 190.07,399.56"/>
    </edge>
    <edge id=":12556328275_w0" function="walkingarea">
        <lane id=":12556328275_w0_0" index="0" allow="pedestrian" speed="2.78" length="7.93" width="3.00" shape="197.04,412.94 199.63,414.46 203.66,407.64 201.08,406.11"/>
    </edge>
    <edge id=":12556328275_w1" function="walkingarea">
        <lane id=":12556328275_w1_0" index="0" allow="pedestrian" speed="2.78" length="8.86" width="3.00" shape="185.35,396.75 182.78,395.22 181.61,396.65 180.38,397.38 179.14,397.76 177.89,398.14 176.68,398.87 175.52,400.31 178.10,401.83 179.26,400.39 180.48,399.66 181.72,399.28 182.97,398.91 184.19,398.18"/>
    </edge>
    <edge id=":12755716358_0" function="internal">
        <lane id=":12755716358_0_0" index="0" allow="pedestrian delivery bicycle" speed="3.65" length="4.67" shape="499.78,83.00 499.13,81.71 499.18,80.82 499.92,80.32 501.36,80.22"/>
    </edge>
    <edge id=":12755716359_0" function="internal">
        <lane id=":12755716359_0_0" index="0" allow="pedestrian delivery bicycle" speed="3.65" length="4.67" shape="552.27,109.19 552.92,110.48 552.87,111.37 552.13,111.87 550.69,111.97"/>
    </edge>
    <edge id=":12755716361_0" function="internal">
        <lane id=":12755716361_0_0" index="0" allow="pedestrian" speed="5.74" length="10.21" width="3.00" shape="526.40,9.43 524.29,5.29 524.44,2.41 526.83,0.79 531.46,0.45"/>
        <lane id=":12755716361_0_1" index="1" disallow="pedestrian tram rail_urban rail rail_electric rail_fast ship container cable_car subway aircraft wheelchair scooter drone" speed="3.90" length="10.21" width="3.66" shape="528.03,6.53 527.29,5.06 527.34,4.04 528.18,3.47 529.83,3.35"/>
    </edge>
    <edge id=":12755716361_w0" function="walkingarea">
        <lane id=":12755716361_w0_0" index="0" allow="pedestrian" speed="2.78" length="10.32" width="3.00" shape="530.73,1.75 532.20,-0.86 525.66,10.74 527.13,8.13"/>
    </edge>
    <edge id=":12784544153_w0" function="walkingarea">
        <lane id=":12784544153_w0_0" index="0" allow="pedestrian" speed="2.78" length="3.85" width="2.00" shape="291.01,52.29 288.98,50.40 288.18,50.79 287.87,50.84 287.54,50.82 287.14,50.76 286.63,50.66 285.44,52.49 286.26,52.83 286.44,53.11 286.48,53.47 286.38,53.90 286.13,54.41 287.84,55.43 289.13,53.51 289.69,52.88 290.19,52.47 290.63,52.27"/>
    </edge>
    <edge id=":12895287944_0" function="internal">
        <lane id=":12895287944_0_0" index="0" allow="pedestrian delivery bicycle" speed="3.65" length="4.67" shape="355.12,269.07 356.40,268.41 357.29,268.46 357.80,269.20 357.90,270.63"/>
    </edge>
    <edge id=":12895287954_w0" function="walkingarea">
        <lane id=":12895287954_w0_0" index="0" allow="pedestrian" speed="2.78" length="4.03" width="2.00" shape="480.12,270.65 478.40,269.62 477.83,270.25 477.49,270.40 477.13,270.43 476.73,270.34 476.31,270.14 475.30,271.87 475.94,272.43 476.08,272.76 476.11,273.11 476.03,273.50 475.83,273.91 477.55,274.94"/>
    </edge>
    <edge id=":12895287955_w0" function="walkingarea">
        <lane id=":12895287955_w0_0" index="0" allow="pedestrian" speed="2.78" length="4.03" width="2.00" shape="437.66,276.97 438.69,275.26 438.07,274.68 437.92,274.35 437.90,273.99 437.98,273.60 438.19,273.19 436.47,272.16 435.90,272.79 435.57,272.93 435.22,272.96 434.83,272.87 434.42,272.67 433.38,274.38"/>
    </edge>
    <edge id=":13099222537_w0" function="walkingarea">
        <lane id=":13099222537_w0_0" index="0" allow="pedestrian" speed="2.78" length="3.51" width="2.00" shape="570.46,284.64 568.67,283.74 568.15,284.40 567.84,284.55 567.50,284.59 567.12,284.51 566.71,284.32 565.69,286.03 567.61,286.71 568.45,286.62 569.20,286.24 569.87,285.58"/>
    </edge>
    <edge id=":283287539_0" function="internal">
        <lane id=":283287539_0_0" index="0" allow="rail_urban" speed="3.58" length="5.02" shape="514.12,251.30 511.58,255.63"/>
    </edge>
    <edge id=":283287539_c0" function="crossing" crossingEdges="329181091#0">
        <lane id=":283287539_c0_0" index="0" allow="pedestrian" speed="2.78" length="3.20" width="4.00" shape="511.47,252.66 514.24,254.28" outlineShape="512.48,250.94 515.25,252.55 513.23,256.00 510.47,254.39 512.48,250.94 511.22,251.33 510.19,253.04"/>
    </edge>
    <edge id=":283287539_w0" function="walkingarea">
        <lane id=":283287539_w0_0" index="0" allow="pedestrian" speed="2.78" length="0.56" width="4.00" shape="514.20,255.44 515.22,253.72 515.25,252.55 513.23,256.00"/>
    </edge>
    <edge id=":283287539_w1" function="walkingarea">
        <lane id=":283287539_w1_0" index="0" allow="pedestrian" speed="2.78" length="0.90" width="4.00" shape="510.47,254.39 512.48,250.94 511.22,251.33 510.19,253.04"/>
    </edge>
    <edge id=":3215365374_0" function="internal">
        <lane id=":3215365374_0_0" index="0" allow="pedestrian delivery bicycle" speed="5.56" length="9.36" shape="345.60,393.29 340.67,401.24"/>
    </edge>
    <edge id=":3215365374_1" function="internal">
        <lane id=":3215365374_1_0" index="0" allow="pedestrian delivery bicycle" speed="5.56" length="10.15" shape="345.60,393.29 343.83,395.36 341.79,396.39 339.47,396.37 336.86,395.31"/>
    </edge>
    <edge id=":3215365374_2" function="internal">
        <lane id=":3215365374_2_0" index="0" allow="pedestrian delivery bicycle" speed="3.65" length="4.67" shape="345.60,393.29 344.29,393.88 343.40,393.79 342.93,393.03 342.89,391.59"/>
    </edge>
    <edge id=":3215365374_3" function="internal">
        <lane id=":3215365374_3_0" index="0" allow="pedestrian delivery bicycle" speed="5.15" length="5.12" shape="338.46,392.54 339.79,393.09 340.98,393.11 342.01,392.61 342.89,391.59"/>
    </edge>
    <edge id=":3215365374_4" function="internal">
        <lane id=":3215365374_4_0" index="0" allow="pedestrian delivery bicycle" speed="5.56" length="10.29" shape="338.46,392.54 340.69,394.29 341.80,396.32 341.79,398.64 340.67,401.24"/>
    </edge>
    <edge id=":3215365374_5" function="internal">
        <lane id=":3215365374_5_0" index="0" allow="pedestrian delivery bicycle" speed="3.65" length="4.67" shape="338.46,392.54 339.10,393.83 339.05,394.73 338.30,395.22 336.86,395.31"/>
    </edge>
    <edge id=":3215365374_6" function="internal">
        <lane id=":3215365374_6_0" index="0" allow="pedestrian delivery bicycle" speed="5.01" length="5.03" shape="337.94,399.56 338.49,398.29 338.50,397.16 337.95,396.17 336.86,395.31"/>
    </edge>
    <edge id=":3215365374_7" function="internal">
        <lane id=":3215365374_7_0" index="0" allow="pedestrian delivery bicycle" speed="5.56" length="9.39" shape="337.94,399.56 342.89,391.59"/>
    </edge>
    <edge id=":3215365374_8" function="internal">
        <lane id=":3215365374_8_0" index="0" allow="pedestrian delivery bicycle" speed="3.65" length="4.67" shape="337.94,399.56 339.25,398.96 340.14,399.04 340.62,399.80 340.67,401.24"/>
    </edge>
    <edge id=":3215365374_w0" function="walkingarea">
        <lane id=":3215365374_w0_0" index="0" allow="pedestrian" speed="2.78" length="6.89" width="6.40" shape="346.96,394.14 341.53,390.74 340.93,391.35 340.57,391.48 340.17,391.49 339.74,391.38 339.26,391.16 336.06,396.70 336.70,397.26 336.84,397.58 336.87,397.93 336.78,398.32 336.58,398.73 342.03,402.07"/>
    </edge>
    <edge id=":3215365377_0" function="internal">
        <lane id=":3215365377_0_0" index="0" allow="pedestrian delivery bicycle" speed="5.56" length="9.62" shape="278.96,343.67 270.70,338.75"/>
    </edge>
    <edge id=":3215365377_1" function="internal">
        <lane id=":3215365377_1_0" index="0" allow="pedestrian delivery bicycle" speed="5.56" length="10.31" shape="278.96,343.67 276.72,341.94 275.59,339.92 275.58,337.60 276.69,334.99"/>
    </edge>
    <edge id=":3215365377_2" function="internal">
        <lane id=":3215365377_2_0" index="0" allow="pedestrian delivery bicycle" speed="3.65" length="4.67" shape="278.96,343.67 278.31,342.39 278.36,341.49 279.10,340.99 280.54,340.88"/>
    </edge>
    <edge id=":3215365377_3" function="internal">
        <lane id=":3215365377_3_0" index="0" allow="pedestrian delivery bicycle" speed="5.01" length="5.04" shape="279.42,336.64 278.88,337.92 278.89,339.05 279.44,340.04 280.54,340.88"/>
    </edge>
    <edge id=":3215365377_4" function="internal">
        <lane id=":3215365377_4_0" index="0" allow="pedestrian delivery bicycle" speed="5.56" length="10.28" shape="279.42,336.64 277.63,338.84 275.58,339.92 273.27,339.89 270.70,338.75"/>
    </edge>
    <edge id=":3215365377_5" function="internal">
        <lane id=":3215365377_5_0" index="0" allow="pedestrian delivery bicycle" speed="3.65" length="4.67" shape="279.42,336.64 278.12,337.25 277.23,337.18 276.75,336.43 276.69,334.99"/>
    </edge>
    <edge id=":3215365377_6" function="internal">
        <lane id=":3215365377_6_0" index="0" allow="pedestrian delivery bicycle" speed="5.04" length="5.06" shape="272.39,336.04 273.66,336.60 274.79,336.61 275.80,336.07 276.69,334.99"/>
    </edge>
    <edge id=":3215365377_7" function="internal">
        <lane id=":3215365377_7_0" index="0" allow="pedestrian delivery bicycle" speed="5.56" length="9.47" shape="272.39,336.04 280.54,340.88"/>
    </edge>
    <edge id=":3215365377_8" function="internal">
        <lane id=":3215365377_8_0" index="0" allow="pedestrian delivery bicycle" speed="3.65" length="4.67" shape="272.39,336.04 272.99,337.36 272.90,338.25 272.14,338.71 270.70,338.75"/>
    </edge>
    <edge id=":3215365377_w0" function="walkingarea">
        <lane id=":3215365377_w0_0" index="0" allow="pedestrian" speed="2.78" length="6.92" width="6.40" shape="278.18,345.07 281.32,339.49 280.68,338.94 280.54,338.62 280.51,338.27 280.59,337.88 280.79,337.47 275.32,334.16 274.73,334.81 274.40,334.95 274.04,334.98 273.65,334.89 273.24,334.69 269.85,340.11"/>
    </edge>
    <edge id=":3215365378_0" function="internal">
        <lane id=":3215365378_0_0" index="0" allow="pedestrian delivery bicycle" speed="5.05" length="5.00" shape="299.02,310.24 297.76,309.70 296.63,309.70 295.63,310.23 294.76,311.29"/>
    </edge>
    <edge id=":3215365378_1" function="internal">
        <lane id=":3215365378_1_0" index="0" allow="pedestrian delivery bicycle" speed="5.56" length="9.39" shape="299.02,310.24 290.98,305.38"/>
    </edge>
    <edge id=":3215365378_2" function="internal">
        <lane id=":3215365378_2_0" index="0" allow="pedestrian delivery bicycle" speed="3.65" length="4.67" shape="299.02,310.24 298.40,308.93 298.47,308.04 299.22,307.56 300.66,307.49"/>
    </edge>
    <edge id=":3215365378_3" function="internal">
        <lane id=":3215365378_3_0" index="0" allow="pedestrian delivery bicycle" speed="5.56" length="9.37" shape="292.64,302.65 300.66,307.49"/>
    </edge>
    <edge id=":3215365378_4" function="internal">
        <lane id=":3215365378_4_0" index="0" allow="pedestrian delivery bicycle" speed="5.56" length="10.15" shape="292.64,302.65 294.79,304.41 295.86,306.44 295.85,308.74 294.76,311.29"/>
    </edge>
    <edge id=":3215365378_5" function="internal">
        <lane id=":3215365378_5_0" index="0" allow="pedestrian delivery bicycle" speed="3.65" length="4.67" shape="292.64,302.65 293.25,303.95 293.18,304.84 292.42,305.32 290.98,305.38"/>
    </edge>
    <edge id=":3215365378_6" function="internal">
        <lane id=":3215365378_6_0" index="0" allow="pedestrian delivery bicycle" speed="5.04" length="5.00" shape="292.02,309.64 292.56,308.38 292.56,307.25 292.04,306.25 290.98,305.38"/>
    </edge>
    <edge id=":3215365378_7" function="internal">
        <lane id=":3215365378_7_0" index="0" allow="pedestrian delivery bicycle" speed="5.56" length="10.15" shape="292.02,309.64 293.78,307.49 295.81,306.41 298.10,306.41 300.66,307.49"/>
    </edge>
    <edge id=":3215365378_8" function="internal">
        <lane id=":3215365378_8_0" index="0" allow="pedestrian delivery bicycle" speed="3.65" length="4.67" shape="292.02,309.64 293.33,309.03 294.22,309.10 294.70,309.85 294.76,311.29"/>
    </edge>
    <edge id=":3215365378_w0" function="walkingarea">
        <lane id=":3215365378_w0_0" index="0" allow="pedestrian" speed="2.78" length="6.86" width="6.40" shape="298.19,311.61 301.49,306.12 293.47,301.28 290.15,306.75 290.77,307.32 290.91,307.65 290.94,308.01 290.85,308.40 290.65,308.81 296.13,312.12 296.70,311.49 297.03,311.35 297.39,311.32 297.78,311.41"/>
    </edge>
    <edge id=":3215365380_0" function="internal">
        <lane id=":3215365380_0_0" index="0" allow="pedestrian delivery bicycle" speed="5.56" length="16.97" shape="334.64,411.08 332.63,413.14 329.38,414.79 324.89,416.05 319.17,416.90"/>
    </edge>
    <edge id=":3215365380_1" function="internal">
        <lane id=":3215365380_1_0" index="0" allow="pedestrian delivery bicycle" speed="5.56" length="16.41" shape="334.64,411.08 332.51,412.93 329.30,413.34 325.00,412.31 319.60,409.85"/>
    </edge>
    <edge id=":3215365380_2" function="internal">
        <lane id=":3215365380_2_0" index="0" allow="pedestrian delivery bicycle" speed="3.65" length="4.67" shape="334.64,411.08 333.33,411.68 332.44,411.60 331.96,410.84 331.91,409.40"/>
    </edge>
    <edge id=":3215365380_3" function="internal">
        <lane id=":3215365380_3_0" index="0" allow="pedestrian delivery bicycle" speed="5.56" length="11.67" shape="321.12,407.03 325.25,409.03 328.42,410.09 330.64,410.22 331.91,409.40"/>
    </edge>
    <edge id=":3215365380_4" function="internal">
        <lane id=":3215365380_4_0" index="0" allow="pedestrian delivery bicycle" speed="5.56" length="19.82" shape="321.12,407.03 326.68,410.69 328.21,413.56 325.71,415.63 319.17,416.90"/>
    </edge>
    <edge id=":3215365380_5" function="internal">
        <lane id=":3215365380_5_0" index="0" allow="pedestrian delivery bicycle" speed="3.65" length="4.67" shape="321.12,407.03 321.80,408.30 321.77,409.20 321.04,409.71 319.60,409.85"/>
    </edge>
    <edge id=":3215365380_6" function="internal">
        <lane id=":3215365380_6_0" index="0" allow="pedestrian delivery bicycle" speed="4.80" length="7.76" shape="318.84,413.72 321.40,413.22 322.38,412.41 321.78,411.29 319.60,409.85"/>
    </edge>
    <edge id=":3215365380_7" function="internal">
        <lane id=":3215365380_7_0" index="0" allow="pedestrian delivery bicycle" speed="5.56" length="14.07" shape="318.84,413.72 323.83,413.02 327.67,412.07 330.36,410.86 331.91,409.40"/>
    </edge>
    <edge id=":3215365380_8" function="internal">
        <lane id=":3215365380_8_0" index="0" allow="pedestrian delivery bicycle" speed="3.65" length="4.67" shape="318.84,413.72 320.12,414.39 320.60,415.14 320.28,415.98 319.17,416.90"/>
    </edge>
    <edge id=":3215365380_w0" function="walkingarea">
        <lane id=":3215365380_w0_0" index="0" allow="pedestrian" speed="2.78" length="10.09" width="6.40" shape="336.00,411.91 330.54,408.57 329.23,408.81 327.98,408.47 326.34,407.83 324.30,406.88 321.87,405.62 318.85,411.26 319.42,411.67 319.47,411.83 319.36,411.96 319.10,412.06 318.68,412.12 319.33,418.49 323.54,417.93 327.17,417.15 330.24,416.16 332.73,414.95 334.65,413.54"/>
    </edge>
    <edge id=":3215365381_0" function="internal">
        <lane id=":3215365381_0_0" index="0" allow="pedestrian delivery bicycle" speed="5.08" length="5.05" shape="317.48,321.32 316.22,320.79 315.08,320.80 314.07,321.35 313.18,322.42"/>
    </edge>
    <edge id=":3215365381_1" function="internal">
        <lane id=":3215365381_1_0" index="0" allow="pedestrian delivery bicycle" speed="5.56" length="9.40" shape="317.48,321.32 309.42,316.48"/>
    </edge>
    <edge id=":3215365381_2" function="internal">
        <lane id=":3215365381_2_0" index="0" allow="pedestrian delivery bicycle" speed="3.65" length="4.67" shape="317.48,321.32 316.86,320.02 316.93,319.12 317.69,318.64 319.13,318.58"/>
    </edge>
    <edge id=":3215365381_3" function="internal">
        <lane id=":3215365381_3_0" index="0" allow="pedestrian delivery bicycle" speed="5.56" length="9.40" shape="311.07,313.74 319.13,318.58"/>
    </edge>
    <edge id=":3215365381_4" function="internal">
        <lane id=":3215365381_4_0" index="0" allow="pedestrian delivery bicycle" speed="5.56" length="10.22" shape="311.07,313.74 313.25,315.51 314.32,317.55 314.30,319.85 313.18,322.42"/>
    </edge>
    <edge id=":3215365381_5" function="internal">
        <lane id=":3215365381_5_0" index="0" allow="pedestrian delivery bicycle" speed="3.65" length="4.67" shape="311.07,313.74 311.69,315.04 311.62,315.93 310.86,316.41 309.42,316.48"/>
    </edge>
    <edge id=":3215365381_6" function="internal">
        <lane id=":3215365381_6_0" index="0" allow="pedestrian delivery bicycle" speed="5.03" length="5.02" shape="310.46,320.74 311.01,319.48 311.02,318.35 310.49,317.35 309.42,316.48"/>
    </edge>
    <edge id=":3215365381_7" function="internal">
        <lane id=":3215365381_7_0" index="0" allow="pedestrian delivery bicycle" speed="5.56" length="10.16" shape="310.46,320.74 312.24,318.59 314.29,317.51 316.58,317.51 319.13,318.58"/>
    </edge>
    <edge id=":3215365381_8" function="internal">
        <lane id=":3215365381_8_0" index="0" allow="pedestrian delivery bicycle" speed="3.65" length="4.67" shape="310.46,320.74 311.77,320.14 312.66,320.22 313.13,320.98 313.18,322.42"/>
    </edge>
    <edge id=":3215365381_w0" function="walkingarea">
        <lane id=":3215365381_w0_0" index="0" allow="pedestrian" speed="2.78" length="6.88" width="6.40" shape="316.66,322.69 319.95,317.21 311.89,312.37 308.60,317.85 309.22,318.42 309.36,318.75 309.39,319.11 309.30,319.49 309.09,319.90 314.54,323.27 315.14,322.60 315.48,322.45 315.85,322.41 316.24,322.49"/>
    </edge>
    <edge id=":3215365382_0" function="internal">
        <lane id=":3215365382_0_0" index="0" allow="pedestrian delivery bicycle" speed="5.56" length="9.40" shape="308.75,379.09 300.61,374.39"/>
    </edge>
    <edge id=":3215365382_1" function="internal">