<?xml version="1.0" encoding="UTF-8"?>
<!-- Updated at 2026-02-11 16:02:00 -->
<additional xmlns:xsi="http://www.w3.org/2001/XMLSchema-instance"
            xsi:noNamespaceSchemaLocation="http://sumo.dlr.de/xsd/additional_file.xsd">
    <tlLogic id="cluster_1984576776_3478559735_3478559736_3537422682_#1more" type="actuated" programID="1418903639#0_1"
             offset="0">
        <phase duration="5.0" state="rrrrrrGGGrrrrrrrrrrrrrrrGGGrrrrrrrrrrrrr"/>
        <phase duration="3.0" state="rrrrrryyyrrrrrrrrrrrrrrryyyrrrrrrrrrrrrr"/>
        <phase duration="1.0" state="rrrrrrrrrrrrrrrrrrrrrrrrrrrrrrrrrrrrrrrr"/>
        <phase duration="1.0" state="GGGGGGrrrrrrrrrrrrrrrrrrrrrrrrrrrrrrrrrG"/>
        <phase duration="65.2" state="GGGGGGrrrrrrrrrrrrGGGGGGrrrrrrrrrrrrrGrG"/>
        <phase duration="3.6" state="yyyyyyrrrrrrrrrrrryyyyyyrrrrrrrrrrrrryry"/>
        <phase duration="2.0" state="rrrrrrrrrrrrrrrrrrrrrrrrrrrrrrrrrrrrrrrr"/>
        <phase duration="5.0" state="rrrrrrrrrrrrrrrGGGrrrrrrrrrrrrrrrGGGrrrr"/>
        <phase duration="3.0" state="rrrrrrrrrrrrrrryyyrrrrrrrrrrrrrrryyyrrrr"/>
        <phase duration="1.0" state="rrrrrrrrrrrrrrrrrrrrrrrrrrrrrrrrrrrrrrrr"/>
        <phase duration="5.0" state="rrrrrrrrrGGGGGGrrrrrrrrrrrrGGGGGGrrrGrGr"/>
        <phase duration="3.2" state="rrrrrrrrryyyyyyrrrrrrrrrrrryyyyyyrrryryr"/>
        <phase duration="2.0" state="rrrrrrrrrrrrrrrrrrrrrrrrrrrrrrrrrrrrrrrr"/>
    </tlLogic>
    <tlLogic id="cluster_1984576776_3478559735_3478559736_3537422682_#1more" type="actuated" programID="1418903639#0_2"
             offset="0">
        <phase duration="5.0" state="rrrrrrGGGrrrrrrrrrrrrrrrGGGrrrrrrrrrrrrr"/>
        <phase duration="3.0" state="rrrrrryyyrrrrrrrrrrrrrrryyyrrrrrrrrrrrrr"/>
        <phase duration="1.0" state="rrrrrrrrrrrrrrrrrrrrrrrrrrrrrrrrrrrrrrrr"/>
        <phase duration="1.0" state="GGGGGGrrrrrrrrrrrrrrrrrrrrrrrrrrrrrrrrrG"/>
        <phase duration="65.2" state="GGGGGGrrrrrrrrrrrrGGGGGGrrrrrrrrrrrrrGrG"/>
        <phase duration="3.6" state="yyyyyyrrrrrrrrrrrryyyyyyrrrrrrrrrrrrryry"/>
        <phase duration="2.0" state="rrrrrrrrrrrrrrrrrrrrrrrrrrrrrrrrrrrrrrrr"/>
        <phase duration="5.0" state="rrrrrrrrrrrrrrrGGGrrrrrrrrrrrrrrrGGGrrrr"/>
        <phase duration="3.0" state="rrrrrrrrrrrrrrryyyrrrrrrrrrrrrrrryyyrrrr"/>
        <phase duration="1.0" state="rrrrrrrrrrrrrrrrrrrrrrrrrrrrrrrrrrrrrrrr"/>
        <phase duration="5.0" state="rrrrrrrrrGGGGGGrrrrrrrrrrrrGGGGGGrrrGrGr"/>
        <phase duration="3.2" state="rrrrrrrrryyyyyyrrrrrrrrrrrryyyyyyrrryryr"/>
        <phase duration="2.0" state="rrrrrrrrrrrrrrrrrrrrrrrrrrrrrrrrrrrrrrrr"/>
    </tlLogic>
    <tlLogic id="cluster_1984576776_3478559735_3478559736_3537422682_#1more" type="actuated" programID="1418903639#0_3"
             offset="0">
        <phase duration="5.0" state="rrrrrrGGGrrrrrrrrrrrrrrrGGGrrrrrrrrrrrrr"/>
        <phase duration="3.0" state="rrrrrryyyrrrrrrrrrrrrrrryyyrrrrrrrrrrrrr"/>
        <phase duration="1.0" state="rrrrrrrrrrrrrrrrrrrrrrrrrrrrrrrrrrrrrrrr"/>
        <phase duration="1.0" state="GGGGGGrrrrrrrrrrrrrrrrrrrrrrrrrrrrrrrrrG"/>
        <phase duration="65.2" state="GGGGGGrrrrrrrrrrrrGGGGGGrrrrrrrrrrrrrGrG"/>
        <phase duration="3.6" state="yyyyyyrrrrrrrrrrrryyyyyyrrrrrrrrrrrrryry"/>
        <phase duration="2.0" state="rrrrrrrrrrrrrrrrrrrrrrrrrrrrrrrrrrrrrrrr"/>
        <phase duration="5.0" state="rrrrrrrrrrrrrrrGGGrrrrrrrrrrrrrrrGGGrrrr"/>
        <phase duration="3.0" state="rrrrrrrrrrrrrrryyyrrrrrrrrrrrrrrryyyrrrr"/>
        <phase duration="1.0" state="rrrrrrrrrrrrrrrrrrrrrrrrrrrrrrrrrrrrrrrr"/>
        <phase duration="5.0" state="rrrrrrrrrGGGGGGrrrrrrrrrrrrGGGGGGrrrGrGr"/>
        <phase duration="3.2" state="rrrrrrrrryyyyyyrrrrrrrrrrrryyyyyyrrryryr"/>
        <phase duration="2.0" state="rrrrrrrrrrrrrrrrrrrrrrrrrrrrrrrrrrrrrrrr"/>
    </tlLogic>
    <tlLogic id="cluster_1984576776_3478559735_3478559736_3537422682_#1more" type="actuated" programID="-417034082#1_2"
             offset="0">
        <phase duration="5.0" state="rrrrrrGGGrrrrrrrrrrrrrrrGGGrrrrrrrrrrrrr"/>
        <phase duration="3.0" state="rrrrrryyyrrrrrrrrrrrrrrrGGGrrrrrrrrrrrrr"/>
        <phase duration="1.9" state="rrrrrrrrrrrrrrrrrrrrrrrrGGGrrrrrrrrrrrrr"/>
        <phase duration="0.1" state="rrrrrrrrrrrrrrrrrrrrrrrryyyrrrrrrrrrrrrr"/>
        <phase duration="2.9" state="rrrrrrrrrrrrrrrrrrGGGGGGyyyrrrrrrrrrrGrr"/>
        <phase duration="1.0" state="rrrrrrrrrrrrrrrrrrGGGGGGrrrrrrrrrrrrrGrr"/>
        <phase duration="61.3" state="GGGGGGrrrrrrrrrrrrGGGGGGrrrrrrrrrrrrrGrG"/>
        <phase duration="3.6" state="yyyyyyrrrrrrrrrrrryyyyyyrrrrrrrrrrrrryry"/>
        <phase duration="2.0" state="rrrrrrrrrrrrrrrrrrrrrrrrrrrrrrrrrrrrrrrr"/>
        <phase duration="5.0" state="rrrrrrrrrrrrrrrGGGrrrrrrrrrrrrrrrGGGrrrr"/>
        <phase duration="3.0" state="rrrrrrrrrrrrrrryyyrrrrrrrrrrrrrrryyyrrrr"/>
        <phase duration="1.0" state="rrrrrrrrrrrrrrrrrrrrrrrrrrrrrrrrrrrrrrrr"/>
        <phase duration="5.0" state="rrrrrrrrrGGGGGGrrrrrrrrrrrrGGGGGGrrrGrGr"/>
        <phase duration="3.2" state="rrrrrrrrryyyyyyrrrrrrrrrrrryyyyyyrrryryr"/>
        <phase duration="2.0" state="rrrrrrrrrrrrrrrrrrrrrrrrrrrrrrrrrrrrrrrr"/>
    </tlLogic>
    <tlLogic id="cluster_1984576776_3478559735_3478559736_3537422682_#1more" type="actuated" programID="-417034082#1_3"
             offset="0">
        <phase duration="5.0" state="rrrrrrGGGrrrrrrrrrrrrrrrGGGrrrrrrrrrrrrr"/>
        <phase duration="3.0" state="rrrrrryyyrrrrrrrrrrrrrrrGGGrrrrrrrrrrrrr"/>
        <phase duration="1.9" state="rrrrrrrrrrrrrrrrrrrrrrrrGGGrrrrrrrrrrrrr"/>
        <phase duration="0.1" state="rrrrrrrrrrrrrrrrrrrrrrrryyyrrrrrrrrrrrrr"/>
        <phase duration="2.9" state="rrrrrrrrrrrrrrrrrrGGGGGGyyyrrrrrrrrrrGrr"/>
        <phase duration="1.0" state="rrrrrrrrrrrrrrrrrrGGGGGGrrrrrrrrrrrrrGrr"/>
        <phase duration="61.3" state="GGGGGGrrrrrrrrrrrrGGGGGGrrrrrrrrrrrrrGrG"/>
        <phase duration="3.6" state="yyyyyyrrrrrrrrrrrryyyyyyrrrrrrrrrrrrryry"/>
        <phase duration="2.0" state="rrrrrrrrrrrrrrrrrrrrrrrrrrrrrrrrrrrrrrrr"/>
        <phase duration="5.0" state="rrrrrrrrrrrrrrrGGGrrrrrrrrrrrrrrrGGGrrrr"/>
        <phase duration="3.0" state="rrrrrrrrrrrrrrryyyrrrrrrrrrrrrrrryyyrrrr"/>
        <phase duration="1.0" state="rrrrrrrrrrrrrrrrrrrrrrrrrrrrrrrrrrrrrrrr"/>
        <phase duration="5.0" state="rrrrrrrrrGGGGGGrrrrrrrrrrrrGGGGGGrrrGrGr"/>
        <phase duration="3.2" state="rrrrrrrrryyyyyyrrrrrrrrrrrryyyyyyrrryryr"/>
        <phase duration="2.0" state="rrrrrrrrrrrrrrrrrrrrrrrrrrrrrrrrrrrrrrrr"/>
    </tlLogic>
    <tlLogic id="cluster_1984576776_3478559735_3478559736_3537422682_#1more" type="actuated" programID="-417034082#1_1"
             offset="0">
        <phase duration="5.0" state="rrrrrrGGGrrrrrrrrrrrrrrrGGGrrrrrrrrrrrrr"/>
        <phase duration="3.0" state="rrrrrryyyrrrrrrrrrrrrrrrGGGrrrrrrrrrrrrr"/>
        <phase duration="1.9" state="rrrrrrrrrrrrrrrrrrrrrrrrGGGrrrrrrrrrrrrr"/>
        <phase duration="0.1" state="rrrrrrrrrrrrrrrrrrrrrrrryyyrrrrrrrrrrrrr"/>
        <phase duration="2.9" state="rrrrrrrrrrrrrrrrrrGGGGGGyyyrrrrrrrrrrGrr"/>
        <phase duration="1.0" state="rrrrrrrrrrrrrrrrrrGGGGGGrrrrrrrrrrrrrGrr"/>
        <phase duration="61.3" state="GGGGGGrrrrrrrrrrrrGGGGGGrrrrrrrrrrrrrGrG"/>
        <phase duration="3.6" state="yyyyyyrrrrrrrrrrrryyyyyyrrrrrrrrrrrrryry"/>
        <phase duration="2.0" state="rrrrrrrrrrrrrrrrrrrrrrrrrrrrrrrrrrrrrrrr"/>
        <phase duration="5.0" state="rrrrrrrrrrrrrrrGGGrrrrrrrrrrrrrrrGGGrrrr"/>
        <phase duration="3.0" state="rrrrrrrrrrrrrrryyyrrrrrrrrrrrrrrryyyrrrr"/>
        <phase duration="1.0" state="rrrrrrrrrrrrrrrrrrrrrrrrrrrrrrrrrrrrrrrr"/>
        <phase duration="5.0" state="rrrrrrrrrGGGGGGrrrrrrrrrrrrGGGGGGrrrGrGr"/>
        <phase duration="3.2" state="rrrrrrrrryyyyyyrrrrrrrrrrrryyyyyyrrryryr"/>
        <phase duration="2.0" state="rrrrrrrrrrrrrrrrrrrrrrrrrrrrrrrrrrrrrrrr"/>
    </tlLogic>
    <tlLogic id="cluster_1984576776_3478559735_3478559736_3537422682_#1more" type="actuated" programID="-416901230#1_1"
             offset="0">
        <phase duration="5.0" state="rrrrrrGGGrrrrrrrrrrrrrrrGGGrrrrrrrrrrrrr"/>
        <phase duration="3.0" state="rrrrrryyyrrrrrrrrrrrrrrrGGGrrrrrrrrrrrrr"/>
        <phase duration="1.9" state="rrrrrrrrrrrrrrrrrrrrrrrrGGGrrrrrrrrrrrrr"/>
        <phase duration="0.1" state="rrrrrrrrrrrrrrrrrrrrrrrryyyrrrrrrrrrrrrr"/>
        <phase duration="2.9" state="rrrrrrrrrrrrrrrrrrGGGGGGyyyrrrrrrrrrrGrr"/>
        <phase duration="1.0" state="rrrrrrrrrrrrrrrrrrGGGGGGrrrrrrrrrrrrrGrr"/>
        <phase duration="61.3" state="GGGGGGrrrrrrrrrrrrGGGGGGrrrrrrrrrrrrrGrG"/>
        <phase duration="3.6" state="yyyyyyrrrrrrrrrrrryyyyyyrrrrrrrrrrrrryry"/>
        <phase duration="2.0" state="rrrrrrrrrrrrrrrrrrrrrrrrrrrrrrrrrrrrrrrr"/>
        <phase duration="5.0" state="rrrrrrrrrrrrrrrGGGrrrrrrrrrrrrrrrGGGrrrr"/>
        <phase duration="3.0" state="rrrrrrrrrrrrrrryyyrrrrrrrrrrrrrrryyyrrrr"/>
        <phase duration="1.0" state="rrrrrrrrrrrrrrrrrrrrrrrrrrrrrrrrrrrrrrrr"/>
        <phase duration="5.0" state="rrrrrrrrrGGGGGGrrrrrrrrrrrrGGGGGGrrrGrGr"/>
        <phase duration="3.2" state="rrrrrrrrryyyyyyrrrrrrrrrrrryyyyyyrrryryr"/>
        <phase duration="2.0" state="rrrrrrrrrrrrrrrrrrrrrrrrrrrrrrrrrrrrrrrr"/>
    </tlLogic>
    <tlLogic id="cluster_1984576776_3478559735_3478559736_3537422682_#1more" type="actuated" programID="-416901230#1_2"
             offset="0">
        <phase duration="5.0" state="rrrrrrGGGrrrrrrrrrrrrrrrGGGrrrrrrrrrrrrr"/>
        <phase duration="3.0" state="rrrrrryyyrrrrrrrrrrrrrrrGGGrrrrrrrrrrrrr"/>
        <phase duration="1.9" state="rrrrrrrrrrrrrrrrrrrrrrrrGGGrrrrrrrrrrrrr"/>
        <phase duration="0.1" state="rrrrrrrrrrrrrrrrrrrrrrrryyyrrrrrrrrrrrrr"/>
        <phase duration="2.9" state="rrrrrrrrrrrrrrrrrrGGGGGGyyyrrrrrrrrrrGrr"/>
        <phase duration="1.0" state="rrrrrrrrrrrrrrrrrrGGGGGGrrrrrrrrrrrrrGrr"/>
        <phase duration="61.3" state="GGGGGGrrrrrrrrrrrrGGGGGGrrrrrrrrrrrrrGrG"/>
        <phase duration="3.6" state="yyyyyyrrrrrrrrrrrryyyyyyrrrrrrrrrrrrryry"/>
        <phase duration="2.0" state="rrrrrrrrrrrrrrrrrrrrrrrrrrrrrrrrrrrrrrrr"/>
        <phase duration="5.0" state="rrrrrrrrrrrrrrrGGGrrrrrrrrrrrrrrrGGGrrrr"/>
        <phase duration="3.0" state="rrrrrrrrrrrrrrryyyrrrrrrrrrrrrrrryyyrrrr"/>
        <phase duration="1.0" state="rrrrrrrrrrrrrrrrrrrrrrrrrrrrrrrrrrrrrrrr"/>
        <phase duration="5.0" state="rrrrrrrrrGGGGGGrrrrrrrrrrrrGGGGGGrrrGrGr"/>
        <phase duration="3.2" state="rrrrrrrrryyyyyyrrrrrrrrrrrryyyyyyrrryryr"/>
        <phase duration="2.0" state="rrrrrrrrrrrrrrrrrrrrrrrrrrrrrrrrrrrrrrrr"/>
    </tlLogic>
    <tlLogic id="cluster_1984576776_3478559735_3478559736_3537422682_#1more" type="actuated" programID="-416901230#1_3"
             offset="0">
        <phase duration="5.0" state="rrrrrrGGGrrrrrrrrrrrrrrrGGGrrrrrrrrrrrrr"/>
        <phase duration="3.0" state="rrrrrryyyrrrrrrrrrrrrrrrGGGrrrrrrrrrrrrr"/>
        <phase duration="1.9" state="rrrrrrrrrrrrrrrrrrrrrrrrGGGrrrrrrrrrrrrr"/>
        <phase duration="0.1" state="rrrrrrrrrrrrrrrrrrrrrrrryyyrrrrrrrrrrrrr"/>
        <phase duration="2.9" state="rrrrrrrrrrrrrrrrrrGGGGGGyyyrrrrrrrrrrGrr"/>
        <phase duration="1.0" state="rrrrrrrrrrrrrrrrrrGGGGGGrrrrrrrrrrrrrGrr"/>
        <phase duration="61.3" state="GGGGGGrrrrrrrrrrrrGGGGGGrrrrrrrrrrrrrGrG"/>
        <phase duration="3.6" state="yyyyyyrrrrrrrrrrrryyyyyyrrrrrrrrrrrrryry"/>
        <phase duration="2.0" state="rrrrrrrrrrrrrrrrrrrrrrrrrrrrrrrrrrrrrrrr"/>
        <phase duration="5.0" state="rrrrrrrrrrrrrrrGGGrrrrrrrrrrrrrrrGGGrrrr"/>
        <phase duration="3.0" state="rrrrrrrrrrrrrrryyyrrrrrrrrrrrrrrryyyrrrr"/>
        <phase duration="1.0" state="rrrrrrrrrrrrrrrrrrrrrrrrrrrrrrrrrrrrrrrr"/>
        <phase duration="5.0" state="rrrrrrrrrGGGGGGrrrrrrrrrrrrGGGGGGrrrGrGr"/>
        <phase duration="3.2" state="rrrrrrrrryyyyyyrrrrrrrrrrrryyyyyyrrryryr"/>
        <phase duration="2.0" state="rrrrrrrrrrrrrrrrrrrrrrrrrrrrrrrrrrrrrrrr"/>
    </tlLogic>
    <tlLogic id="cluster_1984576776_3478559735_3478559736_3537422682_#1more" type="actuated" programID="-416901209#1_2"
             offset="0">
        <phase duration="5.0" state="rrrrrrGGGrrrrrrrrrrrrrrrGGGrrrrrrrrrrrrr"/>
        <phase duration="3.0" state="rrrrrryyyrrrrrrrrrrrrrrrGGGrrrrrrrrrrrrr"/>
        <phase duration="1.9" state="rrrrrrrrrrrrrrrrrrrrrrrrGGGrrrrrrrrrrrrr"/>
        <phase duration="0.1" state="rrrrrrrrrrrrrrrrrrrrrrrryyyrrrrrrrrrrrrr"/>
        <phase duration="2.9" state="rrrrrrrrrrrrrrrrrrGGGGGGyyyrrrrrrrrrrGrr"/>
        <phase duration="1.0" state="rrrrrrrrrrrrrrrrrrGGGGGGrrrrrrrrrrrrrGrr"/>
        <phase duration="61.3" state="GGGGGGrrrrrrrrrrrrGGGGGGrrrrrrrrrrrrrGrG"/>
        <phase duration="3.6" state="yyyyyyrrrrrrrrrrrryyyyyyrrrrrrrrrrrrryry"/>
        <phase duration="2.0" state="rrrrrrrrrrrrrrrrrrrrrrrrrrrrrrrrrrrrrrrr"/>
        <phase duration="5.0" state="rrrrrrrrrrrrrrrGGGrrrrrrrrrrrrrrrGGGrrrr"/>
        <phase duration="3.0" state="rrrrrrrrrrrrrrryyyrrrrrrrrrrrrrrryyyrrrr"/>
        <phase duration="1.0" state="rrrrrrrrrrrrrrrrrrrrrrrrrrrrrrrrrrrrrrrr"/>
        <phase duration="5.0" state="rrrrrrrrrGGGGGGrrrrrrrrrrrrGGGGGGrrrGrGr"/>
        <phase duration="3.2" state="rrrrrrrrryyyyyyrrrrrrrrrrrryyyyyyrrryryr"/>
        <phase duration="2.0" state="rrrrrrrrrrrrrrrrrrrrrrrrrrrrrrrrrrrrrrrr"/>
    </tlLogic>
    <tlLogic id="cluster_1984576776_3478559735_3478559736_3537422682_#1more" type="actuated" programID="-416901209#1_3"
             offset="0">
        <phase duration="5.0" state="rrrrrrGGGrrrrrrrrrrrrrrrGGGrrrrrrrrrrrrr"/>
        <phase duration="3.0" state="rrrrrryyyrrrrrrrrrrrrrrrGGGrrrrrrrrrrrrr"/>
        <phase duration="1.9" state="rrrrrrrrrrrrrrrrrrrrrrrrGGGrrrrrrrrrrrrr"/>
        <phase duration="0.1" state="rrrrrrrrrrrrrrrrrrrrrrrryyyrrrrrrrrrrrrr"/>
        <phase duration="2.9" state="rrrrrrrrrrrrrrrrrrGGGGGGyyyrrrrrrrrrrGrr"/>
        <phase duration="1.0" state="rrrrrrrrrrrrrrrrrrGGGGGGrrrrrrrrrrrrrGrr"/>
        <phase duration="61.3" state="GGGGGGrrrrrrrrrrrrGGGGGGrrrrrrrrrrrrrGrG"/>
        <phase duration="3.6" state="yyyyyyrrrrrrrrrrrryyyyyyrrrrrrrrrrrrryry"/>
        <phase duration="2.0" state="rrrrrrrrrrrrrrrrrrrrrrrrrrrrrrrrrrrrrrrr"/>
        <phase duration="5.0" state="rrrrrrrrrrrrrrrGGGrrrrrrrrrrrrrrrGGGrrrr"/>
        <phase duration="3.0" state="rrrrrrrrrrrrrrryyyrrrrrrrrrrrrrrryyyrrrr"/>
        <phase duration="1.0" state="rrrrrrrrrrrrrrrrrrrrrrrrrrrrrrrrrrrrrrrr"/>
        <phase duration="5.0" state="rrrrrrrrrGGGGGGrrrrrrrrrrrrGGGGGGrrrGrGr"/>
        <phase duration="3.2" state="rrrrrrrrryyyyyyrrrrrrrrrrrryyyyyyrrryryr"/>
        <phase duration="2.0" state="rrrrrrrrrrrrrrrrrrrrrrrrrrrrrrrrrrrrrrrr"/>
    </tlLogic>
    <tlLogic id="cluster_1984576776_3478559735_3478559736_3537422682_#1more" type="actuated" programID="-416901209#1_1"
             offset="0">
        <phase duration="5.0" state="rrrrrrGGGrrrrrrrrrrrrrrrGGGrrrrrrrrrrrrr"/>
        <phase duration="3.0" state="rrrrrryyyrrrrrrrrrrrrrrrGGGrrrrrrrrrrrrr"/>
        <phase duration="1.9" state="rrrrrrrrrrrrrrrrrrrrrrrrGGGrrrrrrrrrrrrr"/>
        <phase duration="0.1" state="rrrrrrrrrrrrrrrrrrrrrrrryyyrrrrrrrrrrrrr"/>
        <phase duration="2.9" state="rrrrrrrrrrrrrrrrrrGGGGGGyyyrrrrrrrrrrGrr"/>
        <phase duration="1.0" state="rrrrrrrrrrrrrrrrrrGGGGGGrrrrrrrrrrrrrGrr"/>
        <phase duration="61.3" state="GGGGGGrrrrrrrrrrrrGGGGGGrrrrrrrrrrrrrGrG"/>
        <phase duration="3.6" state="yyyyyyrrrrrrrrrrrryyyyyyrrrrrrrrrrrrryry"/>
        <phase duration="2.0" state="rrrrrrrrrrrrrrrrrrrrrrrrrrrrrrrrrrrrrrrr"/>
        <phase duration="5.0" state="rrrrrrrrrrrrrrrGGGrrrrrrrrrrrrrrrGGGrrrr"/>
        <phase duration="3.0" state="rrrrrrrrrrrrrrryyyrrrrrrrrrrrrrrryyyrrrr"/>
        <phase duration="1.0" state="rrrrrrrrrrrrrrrrrrrrrrrrrrrrrrrrrrrrrrrr"/>
        <phase duration="5.0" state="rrrrrrrrrGGGGGGrrrrrrrrrrrrGGGGGGrrrGrGr"/>
        <phase duration="3.2" state="rrrrrrrrryyyyyyrrrrrrrrrrrryyyyyyrrryryr"/>
        <phase duration="2.0" state="rrrrrrrrrrrrrrrrrrrrrrrrrrrrrrrrrrrrrrrr"/>
    </tlLogic>
    <tlLogic id="cluster_1984576776_3478559735_3478559736_3537422682_#1more" type="actuated" programID="opt" offset="0">
        <phase duration="5.0" state="rrrrrrGGGrrrrrrrrrrrrrrrGGGrrrrrrrrrrrrr"/>
        <phase duration="3.0" state="rrrrrryyyrrrrrrrrrrrrrrrGGGrrrrrrrrrrrrr"/>
        <phase duration="1.9" state="rrrrrrrrrrrrrrrrrrrrrrrrGGGrrrrrrrrrrrrr"/>
        <phase duration="0.1" state="rrrrrrrrrrrrrrrrrrrrrrrryyyrrrrrrrrrrrrr"/>
        <phase duration="2.9" state="rrrrrrrrrrrrrrrrrrGGGGGGyyyrrrrrrrrrrGrr"/>
        <phase duration="1.0" state="rrrrrrrrrrrrrrrrrrGGGGGGrrrrrrrrrrrrrGrr"/>
        <phase duration="61.3" state="GGGGGGrrrrrrrrrrrrGGGGGGrrrrrrrrrrrrrGrG"/>
        <phase duration="3.6" state="yyyyyyrrrrrrrrrrrryyyyyyrrrrrrrrrrrrryry"/>
        <phase duration="2.0" state="rrrrrrrrrrrrrrrrrrrrrrrrrrrrrrrrrrrrrrrr"/>
        <phase duration="5.0" state="rrrrrrrrrrrrrrrGGGrrrrrrrrrrrrrrrGGGrrrr"/>
        <phase duration="3.0" state="rrrrrrrrrrrrrrryyyrrrrrrrrrrrrrrryyyrrrr"/>
        <phase duration="1.0" state="rrrrrrrrrrrrrrrrrrrrrrrrrrrrrrrrrrrrrrrr"/>
        <phase duration="5.0" state="rrrrrrrrrGGGGGGrrrrrrrrrrrrGGGGGGrrrGrGr"/>
        <phase duration="3.2" state="rrrrrrrrryyyyyyrrrrrrrrrrrryyyyyyrrryryr"/>
        <phase duration="2.0" state="rrrrrrrrrrrrrrrrrrrrrrrrrrrrrrrrrrrrrrrr"/>
    </tlLogic>
    <tlLogic id="cluster_1984576776_3478559735_3478559736_3537422682_#1more" type="actuated" programID="org" offset="0">
        <phase duration="9.0" state="rrrrrrGGGrrrrrrrrrrrrrrrGGGrrrrrrrrrrrrr"/>
        <phase duration="3.0" state="rrrrrryyyrrrrrrrrrrrrrrrGGGrrrrrrrrrrrrr"/>
        <phase duration="2.0" state="rrrrrrrrrrrrrrrrrrrrrrrrGGGrrrrrrrrrrrrr"/>
        <phase duration="3.0" state="rrrrrrrrrrrrrrrrrrGGGGGGyyyrrrrrrrrrrGrr"/>
        <phase duration="1.0" state="rrrrrrrrrrrrrrrrrrGGGGGGrrrrrrrrrrrrrGrr"/>
        <phase duration="26.4" state="GGGGGGrrrrrrrrrrrrGGGGGGrrrrrrrrrrrrrGrG"/>
        <phase duration="3.6" state="yyyyyyrrrrrrrrrrrryyyyyyrrrrrrrrrrrrryry"/>
        <phase duration="2.0" state="rrrrrrrrrrrrrrrrrrrrrrrrrrrrrrrrrrrrrrrr"/>
        <phase duration="12.0" state="rrrrrrrrrrrrrrrGGGrrrrrrrrrrrrrrrGGGrrrr"/>
        <phase duration="1.0" state="rrrrrrrrrrrrrrrGGGrrrrrrrrrrrrrrryyyrrrr"/>
        <phase duration="2.0" state="rrrrrrrrrrrrrrryyyrrrrrrrrrrrrrrryyyrrrr"/>
        <phase duration="1.0" state="rrrrrrrrrrrrrrryyyrrrrrrrrrrrrrrrrrrrrrr"/>
        <phase duration="1.0" state="rrrrrrrrrGGGGGGrrrrrrrrrrrrrrrrrrrrrGrrr"/>
        <phase duration="27.8" state="rrrrrrrrrGGGGGGrrrrrrrrrrrrGGGGGGrrrGrGr"/>
        <phase duration="3.2" state="rrrrrrrrryyyyyyrrrrrrrrrrrryyyyyyrrryryr"/>
        <phase duration="2.0" state="rrrrrrrrrrrrrrrrrrrrrrrrrrrrrrrrrrrrrrrr"/>
    </tlLogic>
</additional>